21
gfn2-109-109-wb97xd.log	Energy: -312833.6709947
O          1.22753        0.86368        1.18134
O         -1.11824        1.51346        0.08468
O          2.61010        0.06497       -0.95122
O         -3.10880       -0.34599       -0.31348
C          0.64221       -0.14552        0.35894
C         -0.86636        0.15963        0.42471
C          1.19099        0.01470       -1.06381
C          0.96534       -1.52668        0.92820
C         -1.74864       -0.66869       -0.49910
H         -1.18602       -0.02335        1.46177
H          0.79910        0.94131       -1.49852
H          0.88589       -0.83608       -1.68616
H          0.59171       -1.60494        1.95259
H          0.51906       -2.32518        0.32738
H          2.04769       -1.67901        0.94047
H         -1.45188       -0.49946       -1.54522
H         -1.64481       -1.73344       -0.27717
H          2.15665        0.92892        0.92580
H         -0.51299        2.04824        0.61294
H          2.98626        0.39813       -1.76859
H         -3.17671        0.61514       -0.34946

