21
gfn2-7-7-wb97xd.log	Energy: -312835.6467679
O         -1.82167       -0.99406       -0.59616
O          0.75881       -1.67202       -0.74386
O          0.05630        2.10365       -0.42481
O          2.24206        0.47869       -0.09067
C         -0.91660       -0.10703        0.08583
C          0.33404       -0.96618        0.40801
C         -0.67785        1.02040       -0.93674
C         -1.55333        0.44380        1.35382
C          1.57927       -0.25063        0.92957
H          0.02374       -1.68200        1.18921
H         -1.66153        1.40027       -1.22593
H         -0.20858        0.59549       -1.83455
H         -0.91929        1.21284        1.80012
H         -2.51414        0.90707        1.11157
H         -1.72032       -0.34817        2.09424
H          1.32390        0.45846        1.72005
H          2.25994       -1.00256        1.34747
H         -2.32317       -1.49545        0.05411
H         -0.04178       -1.92906       -1.22052
H          0.98667        1.82969       -0.38851
H          2.31732       -0.11891       -0.84623

