21
gfn2-250-250-wb97xd.log	Energy: -312833.6759282
O          1.64510       -0.28978        1.26481
O         -0.82007        0.87419        1.24177
O          0.93878        1.84784       -0.58879
O         -2.92878       -0.24236       -0.23293
C          0.87394       -0.47112        0.08923
C         -0.61848       -0.30600        0.46505
C          1.32784        0.53271       -0.97910
C          1.16684       -1.88436       -0.40707
C         -1.60088       -0.31338       -0.70324
H         -0.87875       -1.12944        1.13877
H          0.88074        0.28138       -1.95080
H          2.41876        0.46192       -1.05885
H          2.24339       -2.00390       -0.55790
H          0.84987       -2.61237        0.34344
H          0.65772       -2.10329       -1.34975
H         -1.38420        0.52962       -1.37790
H         -1.51741       -1.24142       -1.27545
H          1.21484        0.39933        1.78713
H         -0.49461        1.61982        0.71477
H          1.37749        2.50027       -1.13868
H         -2.94362        0.43191        0.45712

