21
gfn2-34-34-wb97xd.log	Energy: -312834.0933544
O         -1.27615       -1.37778       -0.41353
O          1.24419       -0.98684       -1.23562
O         -2.28083        1.11161       -0.64127
O          2.04609        1.38535       -0.07176
C         -0.55954       -0.34325        0.26464
C          0.91597       -0.77580        0.12517
C         -0.87244        0.98346       -0.44907
C         -0.98660       -0.30530        1.73257
C          1.96639        0.18565        0.66909
H          1.00904       -1.72153        0.68314
H         -0.43356        0.97264       -1.44809
H         -0.45797        1.83377        0.09879
H         -0.75945       -1.25777        2.21943
H         -0.48660        0.50028        2.27939
H         -2.06770       -0.15134        1.80843
H          1.74028        0.46096        1.70217
H          2.93302       -0.33620        0.66500
H         -2.11965       -0.99312       -0.68859
H          0.50525       -1.47466       -1.62159
H         -2.67640        1.50612        0.14001
H          2.16472        1.13357       -0.99494

