30
1-207-92340-wb97xd.log	Energy: -456715.8220861
O         -2.32211       -1.29602       -0.47653
O          0.30658       -1.80125       -0.43139
O         -2.68018        1.37486       -0.48553
O         -0.12083        1.77506       -1.13352
C         -1.54733       -0.56841        0.47522
C         -0.10673       -0.47418       -0.08930
C         -2.22156        0.79454        0.71548
C         -1.53333       -1.35963        1.77959
C          0.10465        0.39623       -1.33801
H          0.56985       -0.13328        0.70326
H         -1.53533        1.46103        1.25357
H         -3.10391        0.63000        1.34155
H         -1.01748       -2.31391        1.65425
H         -1.02155       -0.79045        2.56331
H         -2.55916       -1.55624        2.10084
H          1.12817        0.21900       -1.69133
H         -0.57869        0.06984       -2.12962
H         -2.75999       -0.62693       -1.02576
H         -0.44978       -2.20504       -0.88288
H         -1.90302        1.80724       -0.88514
H          0.55693        2.11156       -0.51025
O          1.80742        2.41817        0.67905
H          2.34080        3.20660        0.55580
H          2.43579        1.67201        0.79846
O          2.97560       -1.67569       -0.82829
H          3.45809       -2.49586       -0.94857
H          2.02159       -1.89323       -0.77415
O          3.45394        0.28863        0.98244
H          3.51032       -0.12862        1.84483
H          3.36974       -0.43504        0.32418

