30
109-176-65715-wb97xd.log	Energy: -456716.3931975
O         -2.06901       -1.56879       -0.34104
O          0.40111       -1.33668       -1.36355
O         -2.84943        0.90419        0.45467
O         -0.81751        2.07497       -0.84759
C         -1.12562       -0.83083        0.43393
C         -0.06941       -0.26065       -0.54607
C         -1.88084        0.24191        1.23725
C         -0.45075       -1.79987        1.40047
C         -0.50876        0.85894       -1.49774
H          0.79026        0.09217        0.03428
H         -1.16661        0.94672        1.68223
H         -2.41952       -0.25958        2.04719
H          0.11948       -2.56282        0.86593
H          0.23743       -1.26003        2.05972
H         -1.20732       -2.29887        2.01098
H          0.30075        0.99943       -2.22427
H         -1.40118        0.55066       -2.05264
H         -2.78970       -0.95202       -0.54144
H         -0.37099       -1.89458       -1.54209
H         -2.37013        1.59937       -0.03142
H         -0.00801        2.39809       -0.40320
O          3.15870        0.53233        0.97782
H          3.12361       -0.31004        0.47241
H          3.32318        0.29787        1.89376
O          2.88506       -1.79171       -0.40680
H          1.99968       -1.78506       -0.82924
H          3.51758       -2.01145       -1.09466
O          1.57069        2.67063        0.37696
H          2.16472        1.92204        0.59731
H          2.13213        3.39155        0.08429

