30
109-270-34943-wb97xd.log	Energy: -456715.5713483
O         -2.18983       -1.36738       -0.59583
O          0.43294       -1.43383       -1.13143
O         -2.82302        1.17524        0.07934
O         -0.46949        2.10181       -0.81305
C         -1.33232       -0.74311        0.35900
C         -0.04850       -0.30720       -0.39165
C         -2.09588        0.41643        1.02122
C         -0.97335       -1.77994        1.41907
C         -0.16389        0.84989       -1.39351
H          0.72125       -0.06001        0.34763
H         -1.39897        1.03918        1.59646
H         -2.82826       -0.01120        1.71273
H         -0.40204       -2.60506        0.98807
H         -0.36720       -1.32315        2.20814
H         -1.88665       -2.18531        1.86155
H          0.78728        0.89547       -1.93872
H         -0.95096        0.63143       -2.12301
H         -2.78555       -0.67087       -0.91249
H         -0.35498       -1.89034       -1.46312
H         -2.18439        1.80022       -0.30963
H          0.23672        2.32456       -0.17382
O          3.54915        0.61497        0.15962
H          3.89534        0.77154       -0.72194
H          3.33858       -0.34269        0.20420
O          2.73115       -1.98575        0.15640
H          3.24482       -2.76295       -0.07151
H          1.90791       -2.00440       -0.37438
O          1.57477        2.27430        1.00325
H          2.33769        1.71371        0.73968
H          1.92773        3.02866        1.47899

