30
109-423-96172-wb97xd.log	Energy: -456717.7167285
O         -1.48817       -0.87090       -1.33884
O         -0.28503        0.54703        1.82720
O         -0.87951        1.78979       -1.48280
O          0.31440       -2.48866       -0.09805
C         -1.60492       -0.09835       -0.13173
C         -0.26758       -0.22820        0.64580
C         -1.84784        1.35997       -0.54488
C         -2.78902       -0.63708        0.65346
C          0.08218       -1.66291        1.04156
H          0.52941        0.11367       -0.02877
H         -1.87023        2.00230        0.34293
H         -2.82090        1.42091       -1.04223
H         -2.71972       -1.72216        0.76777
H         -2.81779       -0.18216        1.64722
H         -3.72335       -0.41913        0.12889
H          1.00869       -1.64255        1.62080
H         -0.69850       -2.09726        1.67713
H         -1.03598       -0.29585       -1.97493
H          0.13449        1.39558        1.62241
H         -0.11119        2.12923       -0.99316
H         -0.37448       -2.25898       -0.74730
O          1.12545        2.54485        0.36461
H          1.39180        3.46315        0.44852
H          1.94774        2.00784        0.25041
O          2.73842       -1.56773       -0.86653
H          3.07992       -1.95108       -1.67652
H          1.87470       -1.99912       -0.67124
O          3.22470        0.90694        0.10265
H          3.71539        0.70550        0.90319
H          3.05098        0.03898       -0.32637

