28
2-206-93351-wb97xd.log	Energy: -752195.9757912
O         -2.98856       -0.78082        1.41623
O         -0.69086        0.66352        1.60235
O         -0.87953       -1.17624       -1.54711
O         -0.13279        1.34843       -1.24545
C         -2.40851       -0.33135        0.18407
C         -1.70349        0.96690        0.64601
C         -1.46393       -1.45097       -0.28349
C         -3.48906       -0.03977       -0.85110
C         -1.13016        1.90146       -0.40968
H         -2.48838        1.54831        1.15129
H         -2.05686       -2.37334       -0.36154
H         -0.68590       -1.60687        0.46941
H         -4.14810        0.76304       -0.50829
H         -3.05191        0.23768       -1.81376
H         -4.09685       -0.93546       -1.01543
H         -1.95836        2.28424       -1.01871
H         -0.67538        2.75004        0.10677
H         -3.45416       -1.61143        1.27714
H         -1.09562        0.11002        2.28305
H          0.05377       -1.44149       -1.48483
H         -0.44779        0.47926       -1.57856
O          1.93132        0.14128        1.47538
S          2.54268       -0.25138        0.06589
O          3.93334       -0.52751        0.26748
O          1.67476       -1.25863       -0.54061
O          2.42412        1.08348       -0.76794
H          0.95736        0.32297        1.41938
H          1.46180        1.26930       -0.97770

