24
39-53-97440-wb97xd.log	Energy: -360794.9697995
O         -0.81790        1.44157       -0.91694
O          0.36069       -1.40958        1.08295
O          1.86352        1.07716       -0.87459
O         -2.56514       -0.71021       -0.96677
C         -0.29117        0.80572        0.24983
C         -0.31015       -0.73574        0.04334
C          1.14557        1.32543        0.32981
C         -1.05675        1.22650        1.50152
C         -1.72018       -1.33160        0.00507
H          0.17732       -0.93169       -0.92352
H          1.68967        0.83557        1.13992
H          1.11657        2.40483        0.52263
H         -0.70456        0.66373        2.37118
H         -0.92208        2.29601        1.68564
H         -2.12847        1.04607        1.37931
H         -1.63834       -2.40843       -0.17537
H         -2.20505       -1.19780        0.97479
H         -1.65832        1.00715       -1.12629
H          1.27510       -1.57590        0.79669
H          1.26765        1.32284       -1.59495
H         -2.43967       -1.14397       -1.81479
O          2.84410       -1.35344       -0.15848
H          3.39937       -1.90899       -0.70787
H          2.68456       -0.51531       -0.63413

