24
109-108-55065-wb97xd.log	Energy: -360794.9742504
O          1.14938        0.62618       -1.14051
O         -0.80430       -1.19595       -1.04131
O          0.98713       -1.25653        1.06952
O         -3.36038       -0.55831       -0.00882
C          0.21391        0.78674       -0.06100
C         -1.09436        0.09771       -0.51072
C          0.79765        0.14301        1.20769
C          0.02437        2.28210        0.15698
C         -2.18246       -0.02271        0.55190
H         -1.50601        0.66554       -1.35330
H          0.11542        0.30227        2.04914
H          1.74626        0.63595        1.45135
H         -0.42098        2.74178       -0.72897
H         -0.61740        2.48482        1.01928
H          0.99449        2.75476        0.33424
H         -1.82725       -0.65224        1.38149
H         -2.44354        0.96033        0.95358
H          0.83364       -0.13369       -1.65291
H         -0.30118       -1.66308       -0.35059
H          1.88759       -1.38892        0.72778
H         -3.10250       -1.34101       -0.50993
O          3.41635       -0.62878       -0.13289
H          2.86009       -0.02798       -0.66122
H          4.12137       -0.95243       -0.69693

