24
20-305-10480-wb97xd.log	Energy: -360792.4356037
O          0.59654       -2.21927       -0.40743
O          2.43981       -0.25265       -0.48344
O         -1.09807        1.00222       -0.86250
O          1.21415        2.14449       -0.08550
C          0.17996       -0.93723        0.04892
C          1.45371       -0.19990        0.53661
C         -0.52260       -0.26406       -1.14679
C         -0.79224       -1.17809        1.19607
C          1.29947        1.25127        1.00564
H          1.83815       -0.79511        1.37476
H         -1.28500       -0.96002       -1.51460
H          0.20505       -0.11190       -1.95032
H         -1.60808       -1.82069        0.85063
H         -0.28710       -1.68563        2.02268
H         -1.21167       -0.23764        1.56597
H          0.44129        1.35267        1.68169
H          2.20081        1.52838        1.55934
H          1.42105       -2.08045       -0.89324
H          2.39849        0.59991       -0.94096
H         -1.97729        0.87544       -0.47280
H          0.31669        2.04964       -0.45149
O         -3.64438        0.37833        0.13876
H         -4.43870        0.88109       -0.05876
H         -3.78793       -0.05267        0.98539

