24
142-392-80258-wb97xd.log	Energy: -360795.8141448
O         -0.77174        1.42927       -0.97219
O          0.39027       -1.38231        1.08782
O          1.90147        1.10812       -0.76525
O         -2.46704       -0.71057       -0.99645
C         -0.31206        0.80622        0.22787
C         -0.28776       -0.73721        0.03273
C          1.10928        1.34830        0.39256
C         -1.15890        1.22057        1.42820
C         -1.67404       -1.37580       -0.01355
H          0.21112       -0.92979       -0.92633
H          1.60831        0.86600        1.23541
H          1.05254        2.42767        0.57997
H         -1.06727        2.29616        1.60345
H         -2.21507        1.00372        1.24531
H         -0.83988        0.68128        2.32550
H         -1.55354       -2.43572       -0.26315
H         -2.13731       -1.30339        0.97822
H         -1.57102        0.96432       -1.25878
H          1.29699       -1.56842        0.78714
H          1.34243        1.33340       -1.52175
H         -3.35385       -1.07720       -1.00465
O          2.79607       -1.42242       -0.29807
H          2.66380       -0.50491       -0.61087
H          3.71152       -1.50233       -0.02324

