33
2-468-72740-wb97xd.log	Energy: -504677.2192272
O          0.22408        2.00650        0.10142
O         -2.27907        1.41894       -0.16870
O          0.19322       -1.60931       -0.52145
O         -2.33330       -1.54173        0.26745
C         -0.06389        0.66185        0.46976
C         -1.55713        0.75737        0.86746
C          0.20888       -0.21588       -0.76999
C          0.79172        0.22611        1.65680
C         -2.29430       -0.52260        1.24988
H         -1.58428        1.39484        1.76549
H          1.21374        0.02321       -1.13088
H         -0.50305        0.04363       -1.56280
H          0.63558        0.90277        2.50207
H          0.55606       -0.79573        1.96621
H          1.85018        0.25708        1.38159
H         -1.81164       -0.95281        2.13186
H         -3.31557       -0.24202        1.53737
H          1.16933        2.08917       -0.14531
H         -1.68436        2.11471       -0.48847
H         -0.72577       -1.85122       -0.28386
H         -2.94711       -1.27739       -0.44758
O          2.89196        2.11898       -0.52192
H          3.44227        2.69398        0.01436
H          3.35886        1.25543       -0.57378
O          2.65516       -2.43701        0.12704
H          2.69262       -2.74476        1.03518
H          1.70848       -2.25602       -0.07438
O          4.11627       -0.29373       -0.60988
H          4.57562       -0.54945       -1.41301
H          3.61526       -1.08816       -0.31306
O         -3.79914       -0.27230       -1.64816
H         -3.36738        0.52466       -1.28323
H         -4.74391       -0.10570       -1.66772

