33
274-180-28204-wb97xd.log	Energy: -504681.7750658
O          1.54658        0.08430       -1.71071
O          0.34482        1.04030        1.63390
O          1.21870       -1.98644        0.50393
O         -1.40191        2.51002        0.15601
C          1.68584        0.33522       -0.31830
C          0.32236        0.82410        0.22885
C          2.16543       -0.92714        0.42025
C          2.77982        1.38980       -0.17366
C         -0.14541        2.13123       -0.40065
H         -0.42897        0.05861       -0.00802
H          2.42055       -0.66959        1.45138
H          3.07011       -1.28272       -0.08755
H          2.61717        2.20172       -0.88574
H          2.79061        1.79654        0.84118
H          3.75884        0.95322       -0.39284
H          0.58146        2.93019       -0.21650
H         -0.28182        2.01765       -1.47656
H          0.86572       -0.59252       -1.86249
H         -0.06265        0.27085        2.06341
H          0.86493       -2.20910       -0.37840
H         -1.28871        2.45067        1.11494
O         -3.44496        0.84008       -0.52238
H         -2.75630        1.51092       -0.32727
H         -3.98364        1.17952       -1.23968
O         -0.29544       -2.09462       -1.76494
H         -1.14907       -1.96016       -1.26747
H         -0.45105       -2.73773       -2.45959
O         -0.79078       -1.49698        2.14182
H         -0.01593       -1.82906        1.62251
H         -0.85837       -2.02187        2.94266
O         -2.38117       -1.66225       -0.22504
H         -2.06216       -1.65004        0.69284
H         -2.84560       -0.81158       -0.36659

