33
20-477-97836-wb97xd.log	Energy: -504676.1635310
O          2.24172       -0.83662       -1.88102
O          1.56251        1.61946       -1.04075
O         -0.06065       -1.38302        0.91061
O          0.52677        1.06953        1.74774
C          1.88825       -0.73167       -0.50593
C          2.16683        0.74230       -0.10205
C          0.40952       -1.15575       -0.41017
C          2.77811       -1.69945        0.26077
C          1.88709        1.15532        1.34269
H          3.24684        0.87739       -0.24535
H          0.31392       -2.10244       -0.94674
H         -0.22130       -0.41591       -0.92521
H          2.69751       -2.69328       -0.18784
H          3.82408       -1.38410        0.20266
H          2.47586       -1.77489        1.30774
H          2.45193        0.51090        2.02149
H          2.24774        2.18263        1.47492
H          1.95832       -0.01179       -2.29908
H          0.63645        1.80001       -0.80615
H         -0.00630       -0.52841        1.38817
H         -0.00368        1.73686        1.27358
O         -3.41189        1.74912       -0.34174
H         -3.60067        0.79708       -0.52355
H         -4.06340        2.02710        0.30615
O         -4.00571       -0.83172       -0.70608
H         -4.11331       -1.20353       -1.58418
H         -3.47846       -1.48176       -0.18593
O         -0.90741        2.56340       -0.05332
H         -0.90540        3.50386       -0.24724
H         -1.84068        2.24718       -0.16754
O         -2.45721       -2.54788        0.65748
H         -1.57227       -2.15212        0.84117
H         -2.73095       -3.01743        1.44784

