33
109-416-71272-wb97xd.log	Energy: -504678.0056929
O         -0.12994       -0.51763       -1.73629
O         -1.69441       -0.75051        1.58548
O         -1.20169        1.99071       -0.33456
O          1.17736       -2.21075       -0.11457
C         -1.21497       -0.46825       -0.79310
C         -0.65676       -0.73290        0.63334
C         -1.92756        0.89119       -0.86655
C         -2.19959       -1.54799       -1.22519
C          0.06363       -2.07779        0.76601
H          0.06788        0.06579        0.85498
H         -2.85313        0.83501       -0.28850
H         -2.18510        1.08166       -1.91665
H         -1.67414       -2.48595       -1.42250
H         -2.94292       -1.71589       -0.44229
H         -2.70593       -1.25361       -2.14935
H          0.44237       -2.16344        1.78719
H         -0.64699       -2.89699        0.60384
H          0.40473        0.29619       -1.69254
H         -1.75893        0.12641        2.00516
H         -0.36526        2.12218       -0.81410
H          0.90950       -1.80072       -0.95869
O          1.28074        1.89587       -1.54696
H          2.04085        1.82046       -0.91298
H          1.61108        2.31412       -2.34538
O          3.27358        1.56434        0.15385
H          3.35910        0.61655        0.42091
H          3.31838        2.08246        0.96053
O         -1.72836        1.91370        2.31390
H         -1.17025        2.38264        2.93680
H         -1.45741        2.17719        1.41125
O          3.33985       -1.00260        0.88029
H          2.56855       -1.49504        0.50525
H          4.11206       -1.55973        0.76089

