33
142-184-71190-wb97xd.log	Energy: -504681.5585091
O         -0.87872        0.37890        1.61191
O         -1.00922        0.03572       -2.03415
O         -0.51470       -2.26692        0.22648
O          0.02502        2.58415        0.37354
C         -1.49345        0.03691        0.35296
C         -0.54728        0.50153       -0.78086
C         -1.69596       -1.48248        0.33373
C         -2.87065        0.69410        0.26902
C         -0.40132        2.02470       -0.86364
H          0.44174        0.08578       -0.55616
H         -2.30675       -1.73637       -0.53423
H         -2.24385       -1.76314        1.24221
H         -3.55746        0.23331        0.98554
H         -2.80404        1.75775        0.51071
H         -3.28166        0.58863       -0.73927
H          0.31312        2.25757       -1.65999
H         -1.35956        2.48082       -1.12793
H         -0.57230        1.30431        1.50655
H         -0.35698       -0.59553       -2.36838
H          0.03357       -2.15828        1.02361
H          1.00110        2.51688        0.38690
O          1.05771       -1.96307       -1.90550
H          0.45405       -2.24563       -1.17889
H          1.25077       -2.73404       -2.44377
O          1.11736       -1.27093        2.19544
H          0.43826       -0.55315        2.13558
H          1.29283       -1.44737        3.12232
O          2.64808        1.98283       -0.00253
H          3.49525        2.39317        0.17829
H          2.79097        1.00918       -0.03703
O          2.83600       -0.71513       -0.00950
H          2.39958       -1.16437       -0.75312
H          2.37102       -1.00246        0.79433

