33
159-569-86290-wb97xd.log	Energy: -504677.1883487
O         -0.04035        0.26632       -1.67669
O          1.84283        0.84145        1.43060
O          1.02269       -2.05561       -0.13443
O         -1.00327        2.30706       -0.29977
C          1.14066        0.33488       -0.85030
C          0.72469        0.78402        0.57630
C          1.76266       -1.06608       -0.83541
C          2.13897        1.29977       -1.48639
C          0.08322        2.17681        0.61016
H         -0.01339        0.05377        0.93996
H          2.73597       -1.00909       -0.34282
H          1.92096       -1.38126       -1.87526
H          1.65475        2.25144       -1.72029
H          2.97110        1.48833       -0.80296
H          2.52589        0.88560       -2.42257
H         -0.24222        2.37815        1.63603
H          0.83182        2.92878        0.34499
H         -0.56189        1.07081       -1.46088
H          1.90238        0.00953        1.93354
H          0.19165       -2.24595       -0.59840
H         -1.81313        1.97979        0.14512
O         -3.34270       -1.41693        0.34918
H         -3.26625       -2.07844        1.04047
H         -2.70474       -1.66718       -0.35025
O         -3.10261        1.20965        1.03550
H         -3.97406        1.61118        1.01624
H         -3.22378        0.26143        0.81300
O          1.78163       -1.73478        2.44902
H          1.40843       -2.07755        1.61346
H          1.22487       -2.04478        3.16577
O         -1.41703       -1.94232       -1.53742
H         -1.62331       -2.32739       -2.39273
H         -0.97582       -1.06231       -1.69667

