33
109-63-56211-wb97xd.log	Energy: -504682.1282011
O          1.01797        0.48974       -1.63160
O          0.98197        0.08506        2.01221
O          0.65493       -2.24280       -0.26375
O         -0.27282        2.55844       -0.37054
C          1.54866        0.09598       -0.35724
C          0.54134        0.52164        0.74099
C          1.81264       -1.41791       -0.31254
C          2.89027        0.80627       -0.21684
C          0.31569        2.03335        0.81744
H         -0.42262        0.06143        0.48982
H          2.38344       -1.64685        0.58943
H          2.41753       -1.68057       -1.18954
H          2.79443        1.86112       -0.48521
H          3.25317        0.73286        0.81177
H          3.62891        0.36148       -0.89027
H         -0.37991        2.23191        1.63637
H          1.25471        2.55257        1.04288
H          0.24893       -0.06334       -1.86421
H          0.35102       -0.57768        2.32717
H          0.10803       -2.10828       -1.06001
H          0.16322        2.11307       -1.11818
O         -1.12663       -1.27387       -2.07552
H         -1.54075       -1.54762       -2.89647
H         -1.84123       -1.14032       -1.38871
O         -2.83600        1.81751        0.09108
H         -1.96678        2.18001       -0.19039
H         -3.51468        2.42805       -0.20237
O         -0.97837       -1.99928        1.84308
H         -0.36219       -2.25428        1.11576
H         -1.13104       -2.77816        2.38296
O         -2.79086       -0.90482       -0.09198
H         -2.37922       -1.25887        0.71437
H         -2.91824        0.05772        0.03997

