33
274-322-95250-wb97xd.log	Energy: -504680.3962097
O          1.35953       -1.08057       -1.46532
O          0.94466        1.56771        1.04737
O          0.37976       -1.72283        1.36719
O         -0.50723        2.69068       -0.95924
C          1.67797       -0.35831       -0.28354
C          0.64259        0.76862       -0.09024
C          1.67088       -1.28694        0.94664
C          3.09246        0.17745       -0.47119
C          0.48911        1.71836       -1.27101
H         -0.33168        0.28426        0.04759
H          2.10083       -0.76040        1.80226
H          2.29933       -2.15591        0.71667
H          3.18238        0.65921       -1.44768
H          3.33631        0.90162        0.30994
H          3.81522       -0.64365       -0.44024
H          1.43770        2.21984       -1.49771
H          0.15346        1.18318       -2.15917
H          0.49735       -1.51885       -1.37102
H          0.34988        1.30659        1.76673
H         -0.07618       -2.19731        0.64695
H         -0.18078        3.15540       -0.17812
O         -1.07543        0.23794        2.46847
H         -0.62440       -0.58752        2.16604
H         -1.31047        0.12420        3.39187
O         -1.01603       -2.52765       -0.86242
H         -1.85608       -2.01023       -0.96310
H         -1.11620       -3.34736       -1.35122
O         -3.13948       -0.96332       -1.10177
H         -3.01126       -0.11255       -0.61094
H         -4.05649       -1.21798       -0.98111
O         -2.66800        1.26638        0.28640
H         -2.22597        1.01174        1.11392
H         -2.04323        1.84386       -0.19108

