33
2-454-99936-wb97xd.log	Energy: -504676.2318605
O          2.34767       -0.60814       -1.87866
O          1.78760        1.71301       -0.69016
O         -0.19275       -1.48304        0.60185
O          0.42289        0.76302        1.86875
C          1.89012       -0.71367       -0.53502
C          2.22273        0.64656        0.13986
C          0.38567       -1.04207       -0.61801
C          2.65601       -1.85873        0.11262
C          1.81756        0.83856        1.60106
H          3.31871        0.71127        0.12789
H          0.27723       -1.85986       -1.33387
H         -0.16241       -0.17540       -1.01673
H          3.72213       -1.61997        0.16759
H          2.27712       -2.07715        1.11361
H          2.54062       -2.75910       -0.49702
H          2.28720        0.06262        2.21144
H          2.20623        1.80925        1.93246
H          2.16917        0.30197       -2.15422
H          0.86322        1.95340       -0.50472
H         -0.13184       -0.73534        1.23341
H         -0.04562        1.49524        1.42608
O         -4.37065       -0.34922        0.01473
H         -4.83450       -0.20754        0.84267
H         -3.82411       -1.15998        0.12722
O         -2.94074        1.64232       -1.05539
H         -3.48178        0.92724       -0.64072
H         -2.95770        1.48618       -2.00217
O         -0.76661        2.53465        0.13652
H         -0.87844        3.48374        0.22898
H         -1.58353        2.18947       -0.31000
O         -2.67319       -2.41439        0.23718
H         -2.76042       -3.31445        0.55516
H         -1.74758       -2.12103        0.41144

