27
1-351-72670-wb97xd.log	Energy: -408756.5762476
O         -1.26526       -0.55495        1.31994
O          0.34494        1.17244       -0.38422
O         -1.99042        1.94412        0.75336
O          1.00331       -1.64860        0.36295
C         -1.58287       -0.32708       -0.04473
C         -0.31295        0.00793       -0.87289
C         -2.53900        0.87720       -0.01068
C         -2.30583       -1.53671       -0.64080
C          0.70866       -1.12742       -0.91977
H         -0.64139        0.19186       -1.90867
H         -3.49710        0.56120        0.42101
H         -2.72099        1.26438       -1.01703
H         -3.23020       -1.71766       -0.08603
H         -2.55541       -1.38046       -1.69627
H         -1.68890       -2.43446       -0.55644
H          0.31268       -1.93922       -1.54003
H          1.61678       -0.75440       -1.40840
H         -0.42439       -1.04857        1.33378
H         -0.31378        1.75318        0.03582
H         -1.77676        1.55421        1.61319
H          1.88827       -1.33318        0.64145
O          3.01360        1.50314       -0.67758
H          3.32968        2.39775       -0.81459
H          2.03640        1.53162       -0.60721
O          3.47769       -0.64018        0.91329
H          3.49572        0.19363        0.39994
H          3.69039       -0.41124        1.82069
(
