27
1-277-69588-wb97xd.log	Energy: -408757.0377243
O         -1.27934       -0.52582        1.32918
O          0.36108        1.14281       -0.41136
O         -1.95981        1.97245        0.70966
O          0.98473       -1.66715        0.40045
C         -1.58917       -0.32091       -0.04029
C         -0.31332       -0.02233       -0.87341
C         -2.52560        0.89935       -0.03260
C         -2.33041       -1.53039       -0.61404
C          0.69254       -1.17226       -0.89197
H         -0.63783        0.14214       -1.91377
H         -3.48895        0.60797        0.40465
H         -2.70052        1.26862       -1.04693
H         -3.25862       -1.68520       -0.05779
H         -2.57550       -1.39144       -1.67300
H         -1.72858       -2.43632       -0.50989
H          0.28536       -1.99416       -1.49113
H          1.60446       -0.82199       -1.39190
H         -0.44557       -1.03001        1.35989
H         -0.28959        1.74004       -0.00134
H         -1.75374        1.59784        1.57823
H          1.85417       -1.31709        0.68829
O          3.42529       -0.60284        0.94046
H          3.44518        0.22923        0.42074
H          4.19616       -1.11334        0.68314
O          3.03634        1.56673       -0.63289
H          2.05675        1.52594       -0.60342
H          3.28622        2.46757       -0.41589

