27
1-166-100858-wb97xd.log	Energy: -408758.7476851
O          0.52383       -0.04879       -1.21765
O         -0.64635        0.58161        1.35353
O          2.01956        0.59813        1.24152
O         -2.15660       -0.44077       -1.01143
C          0.61765       -0.94860       -0.11250
C         -0.57845       -0.74767        0.85676
C          1.95288       -0.65981        0.59425
C          0.65455       -2.38911       -0.63323
C         -1.93314       -1.08446        0.23361
H         -0.43067       -1.44163        1.70050
H          2.75594       -0.75250       -0.14871
H          2.11294       -1.42270        1.36309
H          1.57988       -2.55664       -1.19196
H          0.60617       -3.11649        0.18415
H         -0.18026       -2.57212       -1.31394
H         -1.99762       -2.16152        0.05689
H         -2.71546       -0.81690        0.95464
H         -0.40987       -0.05400       -1.49956
H          0.27160        0.86555        1.52984
H          2.24290        1.27471        0.57156
H         -2.48666        0.46112       -0.82942
O          2.11831        2.14954       -0.98972
H          1.47751        1.47873       -1.29880
H          2.78118        2.25072       -1.67582
O         -2.47783        2.07214       -0.01887
H         -1.77641        1.76292        0.58884
H         -3.15942        2.48370        0.51627

