27
1-267-36048-wb97xd.log	Energy: -408757.2395872
O         -1.33973       -0.73100        1.23360
O          0.24958        1.17825       -0.25443
O         -2.04211        1.84168        0.94690
O          1.12905       -1.54498        0.48774
C         -1.60531       -0.31879       -0.11195
C         -0.27395        0.00216       -0.83670
C         -2.49241        0.94260       -0.04477
C         -2.35503       -1.45300       -0.79856
C          0.73272       -1.15105       -0.81666
H         -0.51942        0.18209       -1.89747
H         -3.50625        0.65159        0.24419
H         -2.53618        1.41707       -1.03483
H         -3.29888       -1.63458       -0.27890
H         -2.57066       -1.20583       -1.84303
H         -1.77945       -2.38152       -0.77329
H          0.31344       -2.00800       -1.36018
H          1.63843       -0.84059       -1.34805
H         -1.35946        0.07965        1.76645
H          1.16691        1.34946       -0.55053
H         -1.15062        2.11268        0.67629
H          0.35559       -1.41883        1.06678
O          3.59439       -0.49380        0.85539
H          3.85844       -0.35809        1.76788
H          2.71822       -0.93940        0.87240
O          2.89451        1.54547       -0.76144
H          3.44307        1.62512       -1.54387
H          3.30513        0.87264       -0.17401

