27
1-169-74332-wb97xd.log	Energy: -408758.0092496
O         -1.35563       -0.74877        1.21905
O          0.28090        1.16344       -0.23728
O         -2.00240        1.84420        0.97141
O          1.11865       -1.56229        0.49890
C         -1.60199       -0.30624       -0.12051
C         -0.26015        0.00010       -0.83152
C         -2.46475        0.97065       -0.03755
C         -2.36907       -1.41239       -0.83349
C          0.73213       -1.16555       -0.80896
H         -0.49214        0.19178       -1.89280
H         -3.48584        0.69506        0.24079
H         -2.49292        1.46204       -1.01990
H         -3.31639       -1.59002       -0.31881
H         -2.57903       -1.13809       -1.87230
H         -1.80889       -2.35063       -0.82901
H          0.30476       -2.01835       -1.35251
H          1.64312       -0.86515       -1.33698
H         -1.36290        0.05094        1.76839
H          1.19877        1.31886       -0.54362
H         -1.10270        2.09762        0.71143
H          0.33576       -1.45083        1.06862
O          3.48197       -0.36864        1.01347
H          2.62184       -0.84461        0.96881
H          4.16744       -1.03995        0.99040
O          2.91497        1.40594       -0.92839
H          3.34518        2.26095       -0.85805
H          3.29934        0.82992       -0.22960

