27
1-260-95324-wb97xd.log	Energy: -408757.2425591
O          1.10518       -0.35770       -1.39340
O         -0.20597        1.17813        0.68794
O          2.11877        1.94078       -0.48883
O         -1.10196       -1.51336       -0.37792
C          1.54972       -0.39327       -0.04643
C          0.38804       -0.09174        0.93938
C          2.61701        0.71111        0.02309
C          2.18845       -1.74472        0.28065
C         -0.71242       -1.15037        0.93331
H          0.81847       -0.08212        1.95369
H          3.49616        0.39381       -0.55188
H          2.92466        0.89659        1.05588
H          3.04778       -1.90993       -0.37458
H          2.52789       -1.79096        1.32156
H          1.47799       -2.55652        0.10722
H         -0.34919       -2.04308        1.45690
H         -1.56591       -0.75981        1.50055
H          0.23675       -0.79821       -1.41364
H          0.47596        1.76700        0.31769
H          1.81047        1.73938       -1.38360
H         -2.04676       -1.29028       -0.51147
O         -3.67212       -0.66681       -0.51576
H         -3.51794        0.28438       -0.32287
H         -4.16538       -0.71293       -1.33768
O         -2.79279        1.79367        0.11669
H         -3.11467        2.28888        0.87332
H         -1.85010        1.58999        0.29911

