27
1-370-84487-wb97xd.log	Energy: -408756.4040515
O          0.05756        1.04523        0.04664
O         -1.17625       -1.30318        1.19291
O          1.15595       -1.70385       -0.01973
O         -2.41669        1.10819        1.28046
C         -0.46646        0.00245       -0.77978
C         -1.59989       -0.75695       -0.03705
C          0.69720       -0.94394       -1.11658
C         -0.97931        0.60729       -2.09105
C         -2.79633        0.12022        0.32682
H         -1.95011       -1.54974       -0.71907
H          1.51365       -0.34231       -1.53712
H          0.35662       -1.63688       -1.89634
H         -0.13760        0.97714       -2.68462
H         -1.52449       -0.12893       -2.69089
H         -1.63956        1.45515       -1.89381
H         -3.19882        0.64969       -0.53838
H         -3.58694       -0.51881        0.73794
H         -0.67502        1.41201        0.57034
H         -0.26312       -1.62130        1.06829
H          2.02599       -1.35792        0.27114
H         -2.09552        0.61816        2.04915
O          3.55822       -0.57827        0.55182
H          4.00855       -0.76387        1.37868
H          3.36803        0.38492        0.53762
O          2.59416        1.93117        0.39404
H          1.65637        1.68431        0.24720
H          2.82714        2.56953       -0.28339

