27
1-479-93491-wb97xd.log	Energy: -408759.0424332
O         -0.48483       -0.06201        1.23098
O          0.60596        0.53215       -1.40194
O         -2.03604        0.56652       -1.19667
O          2.18942       -0.41704        0.96622
C         -0.60418       -0.97185        0.13728
C          0.56903       -0.78338       -0.86190
C         -1.95732       -0.68607       -0.53679
C         -0.62963       -2.40723        0.67266
C          1.94350       -1.08394       -0.26259
H          0.41360       -1.50185       -1.68303
H         -2.74003       -0.76498        0.22821
H         -2.14143       -1.45484       -1.29409
H         -1.53632       -2.56394        1.26373
H         -0.61163       -3.14260       -0.13870
H          0.22650       -2.58820        1.32717
H          2.03008       -2.15582       -0.06613
H          2.70402       -0.81878       -1.00774
H          0.44953       -0.08176        1.50795
H         -0.32322        0.79420       -1.56137
H         -2.21224        1.25697       -0.52528
H          2.45164        0.50353        0.77024
O          2.27703        2.14316       -0.00188
H          1.63347        1.74937       -0.62763
H          2.94461        2.59327       -0.52403
O         -2.07268        2.14777        1.03563
H         -1.41359        1.48439        1.32092
H         -1.63424        3.00157        1.05914

