34
20-SAc-257-89217-wb97xd.log	Energy: -848120.1761941
O         -3.24477       -0.73816       -1.54963
O         -0.65246       -1.39611       -0.69864
O         -1.66336        1.86315        0.45721
O         -0.37131        0.08372        1.83869
C         -2.74277       -0.19452       -0.33420
C         -1.72364       -1.22433        0.22480
C         -2.14597        1.17672       -0.69215
C         -3.93533       -0.03769        0.59905
C         -1.21561       -1.04174        1.65354
H         -2.26569       -2.17744        0.21702
H         -2.94136        1.75848       -1.16955
H         -1.33990        1.05023       -1.42651
H         -4.73215        0.48834        0.06770
H         -4.32031       -1.01440        0.90726
H         -3.67072        0.54493        1.48477
H         -2.06526       -0.98729        2.34332
H         -0.62199       -1.92022        1.92237
H         -2.48984       -1.03615       -2.07238
H         -0.08249       -0.60162       -0.71469
H         -1.03542        2.54963        0.14601
H         -0.80745        0.87304        1.41848
O          1.59174       -2.94297       -0.75316
H          0.67796       -2.58969       -0.71174
H          1.68163       -3.60201       -0.05989
O          0.33807        3.21426       -0.73881
H          0.94285        3.90047       -0.44657
H          0.87328        2.41659       -0.88901
S          2.52305        0.26784        0.00130
O          3.25690       -0.95057       -0.64191
H          2.64149       -1.75150       -0.70522
O          2.06278       -0.30919        1.38134
H          1.06686       -0.10391        1.57080
O          3.47155        1.33721        0.15079
O          1.29831        0.56946       -0.77202

