34
20-SAc-258-98332-wb97xd.log	Energy: -848119.0063470
O         -3.24129       -0.65040       -1.57459
O         -0.79326       -1.60318       -0.59138
O         -1.38038        1.88843        0.26747
O         -0.41757        0.10717        1.84904
C         -2.69504       -0.08261       -0.38958
C         -1.84072       -1.19621        0.28130
C         -1.91862        1.17198       -0.83878
C         -3.87426        0.30584        0.49261
C         -1.34253       -0.96123        1.70592
H         -2.51566       -2.05840        0.34367
H         -2.63085        1.80440       -1.37913
H         -1.11985        0.89254       -1.53440
H         -4.57899        0.89520       -0.09913
H         -4.39745       -0.58315        0.85732
H         -3.55074        0.91128        1.34299
H         -2.19813       -0.79303        2.36981
H         -0.82980       -1.86651        2.04281
H         -2.52769       -1.11157       -2.03316
H         -0.16682       -0.86170       -0.72025
H         -0.62949        2.44644       -0.02979
H         -0.76715        0.89489        1.34297
O          1.57964       -3.06173       -0.47239
H          0.64947       -2.75893       -0.46958
H          1.68602       -3.65972        0.27189
O          0.87175        3.31162       -0.37351
H          1.68778        2.79032       -0.42496
H          1.09862        4.12402        0.08547
S          2.36304        0.17754       -0.09636
O          3.24808       -1.01824       -0.58077
H          2.68369       -1.85142       -0.57768
O          1.98906       -0.26126        1.35329
H          0.97627       -0.10747        1.56230
O          3.17819        1.37217       -0.09650
O          1.13442        0.24363       -0.89542

