28
187-15-88671-wb97xd.log	Energy: -752197.6504069
O         -0.96670       -0.17480       -1.28741
O         -0.46308       -0.11302        1.55915
O         -1.28201       -2.42654        0.52486
O         -0.63452        2.32303       -0.36198
C         -2.03553       -0.22189       -0.33302
C         -1.61788        0.48915        0.98180
C         -2.33624       -1.70902       -0.10664
C         -3.28043        0.43680       -0.93026
C         -1.35058        1.98637        0.81282
H         -2.45299        0.38756        1.69182
H         -2.58552       -2.16294       -1.07213
H         -3.20336       -1.80272        0.55306
H         -3.62098       -0.13066       -1.80039
H         -4.09517        0.47889       -0.20061
H         -3.05912        1.45467       -1.25997
H         -2.30665        2.51271        0.74955
H         -0.83289        2.34302        1.71110
H         -0.77133        0.77379       -1.41545
H         -0.57718       -1.08043        1.49369
H         -0.61720       -2.68062       -0.12434
H          0.31669        2.15546       -0.24948
O          2.17552       -0.12295        1.37966
S          2.40325       -0.03692       -0.18527
O          1.90629        1.25463       -0.64983
O          3.75283       -0.44074       -0.44062
O          1.42842       -1.15425       -0.75796
H          1.21728        0.05394        1.56559
H          0.52619       -0.76322       -0.95325

