28
187-172-72823-wb97xd.log	Energy: -752192.1108223
O         -0.89226        0.53447       -0.77314
O         -2.55662        0.20921        1.60820
O         -0.05685       -0.66895        1.66111
O         -3.18998        1.93890       -0.32271
C         -1.46012       -0.70829       -0.38539
C         -2.79140       -0.36273        0.32034
C         -0.52808       -1.46809        0.57970
C         -1.69589       -1.60229       -1.60572
C         -3.67289        0.61696       -0.46766
H         -3.33898       -1.29843        0.48175
H          0.35526       -1.82298        0.04118
H         -1.05242       -2.34517        0.97826
H         -0.74270       -1.80415       -2.10348
H         -2.14399       -2.56025       -1.32163
H         -2.35073       -1.11315       -2.32991
H         -3.74302        0.32441       -1.52123
H         -4.68031        0.61202       -0.04421
H          0.01413        0.41330       -1.10156
H         -2.63408        1.16908        1.48209
H         -0.84192       -0.18722        1.99070
H         -2.30154        1.95035       -0.70974
O          1.99260        0.70210        1.10839
S          2.73464        0.12188       -0.13762
O          3.49963       -1.05331        0.21184
O          1.83258        0.06698       -1.27562
O          3.73668        1.32921       -0.43789
H          1.14901        0.15516        1.34924
H          4.52121        1.23471        0.12155

