28
187-18-9118-wb97xd.log	Energy: -752197.2626625
O         -0.72893        0.09065        1.23304
O         -0.69599       -0.31731       -1.61845
O         -0.51926        2.22677       -0.95810
O         -1.41265       -2.37910        0.36609
C         -1.79674        0.56902        0.40654
C         -1.90770       -0.31019       -0.86830
C         -1.48657        2.03397        0.05533
C         -3.09843        0.53632        1.21210
C         -2.26938       -1.76642       -0.59508
H         -2.70877        0.11135       -1.49330
H         -1.19648        2.54546        0.98176
H         -2.40523        2.49911       -0.31457
H         -3.05658        1.28273        2.01023
H         -3.96664        0.75247        0.58129
H         -3.24171       -0.44037        1.68102
H         -3.28195       -1.83109       -0.19096
H         -2.24523       -2.31412       -1.54267
H         -0.83989       -0.87608        1.29792
H         -0.48182        0.62243       -1.78891
H          0.38153        2.09530       -0.61558
H         -0.62026       -2.71797       -0.06390
O          1.89721        0.05186        1.56997
S          2.40512       -0.04642        0.07167
O          2.02330        1.18119       -0.61924
O          3.77090       -0.47365        0.11567
O          1.52966       -1.22596       -0.53384
H          0.92979        0.26410        1.55317
H          0.69037       -0.86252       -0.94695

