28
1-229-27577-wb97xd.log	Energy: -752193.5878164
O         -0.93088        0.37165       -0.89656
O         -2.52516        0.52041        1.55186
O         -0.00894       -0.29172        1.70765
O         -3.24457        1.80819       -0.67143
C         -1.46390       -0.77154       -0.24330
C         -2.78254       -0.30700        0.41617
C         -0.48990       -1.30299        0.82679
C         -1.71501       -1.90062       -1.24658
C         -3.70402        0.47774       -0.52890
H         -3.30717       -1.19714        0.78210
H          0.38740       -1.74184        0.34437
H         -0.98527       -2.08826        1.41110
H         -0.77165       -2.18822       -1.72024
H         -2.13803       -2.78528       -0.75906
H         -2.39721       -1.57924       -2.03644
H         -3.79623       -0.02521       -1.49794
H         -4.69956        0.54527       -0.08331
H         -0.01838        0.20605       -1.18463
H         -2.62478        1.43286        1.23420
H         -0.79527        0.23574        1.95410
H         -2.36819        1.75469       -1.08150
O          2.04773        0.97095        0.94724
S          2.77111        0.29232       -0.25505
O          1.80464       -0.15414       -1.24266
O          3.89226        1.11478       -0.62153
O          3.31584       -1.08877        0.37970
H          1.19223        0.47183        1.23628
H          4.10926       -0.90264        0.90258

