28
187-233-69063-wb97xd.log	Energy: -752193.6420521
O          2.40643       -0.31684       -1.35888
O          0.76662        0.97176        0.68581
O          2.92183        2.12490       -0.43115
O          0.00228       -1.35027       -0.86874
C          2.70880       -0.26295        0.04174
C          1.39346       -0.28544        0.85862
C          3.47776        1.05140        0.29860
C          3.59081       -1.45914        0.37498
C          0.45965       -1.43665        0.48150
H          1.66485       -0.42920        1.91702
H          4.50484        0.93991       -0.05951
H          3.50606        1.26099        1.37599
H          4.50194       -1.41754       -0.22618
H          3.86828       -1.45726        1.43393
H          3.09011       -2.40407        0.15018
H          0.96217       -2.39737        0.63672
H         -0.42704       -1.41801        1.12023
H          2.38754        0.60695       -1.65961
H         -0.16505        0.93920        0.95582
H          2.03352        2.26844       -0.07193
H          0.76944       -1.04190       -1.39515
O         -3.49852       -1.14307        0.48713
S         -2.91503        0.29036        0.03032
O         -4.01246        1.15087       -0.32072
O         -1.99397        0.63207        1.09944
O         -2.13048       -0.04717       -1.27390
H         -4.27563       -1.35156       -0.05153
H         -1.25726       -0.56558       -1.09572

