34
187-411-100568-wb97xd.log	Energy: -848117.2769623
O          2.01069        0.10645        1.33212
O          1.88399       -0.58454       -1.56567
O          3.03974       -2.20436        0.35832
O          0.56215        1.74865       -0.15891
C          3.09819        0.24149        0.40834
C          2.54019        0.54042       -1.00990
C          3.88973       -1.08005        0.40915
C          3.97759        1.38002        0.91088
C          1.66197        1.79034       -1.07163
H          3.39917        0.72875       -1.66600
H          4.44317       -1.15989        1.34891
H          4.61315       -1.07662       -0.41810
H          4.38941        1.12252        1.88968
H          4.80591        1.56967        0.22074
H          3.40471        2.30358        1.02690
H          2.25994        2.68609       -0.86955
H          1.24384        1.87745       -2.07766
H          1.72826       -0.82215        1.31256
H          1.00768       -0.70782       -1.16011
H          2.60496       -2.18641       -0.50610
H          0.86285        1.25890        0.63702
O         -5.30763        0.31338       -0.66498
H         -4.59917       -0.29754       -0.93375
H         -5.31597        1.02271       -1.31268
O         -4.28862        0.68231        1.78229
H         -4.82024        0.24508        2.45270
H         -4.79745        0.64779        0.93719
O         -1.96546       -0.30162        1.31837
S         -1.78636       -0.61665       -0.20523
O         -0.51212       -1.30524       -0.31649
O         -2.97993       -1.24072       -0.74640
O         -1.68808        0.79745       -0.88594
H         -2.88737        0.08799        1.52339
H         -0.80500        1.23891       -0.62420

