33
274-568-55420-wb97xd.log	Energy: -504677.0466790
O          0.01861        0.14536       -1.70053
O          1.96324        0.67957        1.37264
O          0.69000       -2.15906        0.09225
O         -0.63933        2.42106       -0.49596
C          1.19056        0.09697       -0.86111
C          0.85071        0.74072        0.50835
C          1.57400       -1.37864       -0.69820
C          2.33816        0.81713       -1.56650
C          0.44582        2.21527        0.40012
H         -0.00019        0.18288        0.92410
H          2.54716       -1.42771       -0.20470
H          1.67253       -1.81917       -1.69947
H          2.01814        1.80566       -1.90566
H          3.18624        0.93620       -0.88689
H          2.65772        0.25256       -2.44801
H          0.19813        2.57459        1.40538
H          1.29146        2.80794        0.04024
H         -0.38266        1.02987       -1.55490
H          1.81374       -0.04128        2.00984
H         -0.16136       -2.26536       -0.36351
H         -1.46322        2.21552       -0.00676
O         -2.75994        1.59193        1.01887
H         -3.05609        0.68741        0.78127
H         -2.66332        1.60448        1.97378
O          1.10097       -1.58216        2.71370
H          0.87199       -1.97825        1.84874
H          1.61753       -2.23139        3.19524
O         -3.53416       -0.92325        0.29458
H         -2.93058       -1.33533       -0.35454
H         -4.42348       -1.01567       -0.05447
O         -1.63012       -1.86451       -1.47300
H         -1.08130       -1.06109       -1.68417
H         -1.78209       -2.34210       -2.29197

