33
39-592-100926-wb97xd.log	Energy: -504676.5222179
O         -1.52310       -1.01070       -1.41493
O         -0.75043        0.41061        1.88780
O         -0.55196        1.39284       -1.86149
O         -0.10360       -2.68703        0.09986
C         -1.69208       -0.09864       -0.31667
C         -0.55041       -0.34106        0.71292
C         -1.59784        1.32158       -0.90602
C         -3.06529       -0.34243        0.28761
C         -0.42733       -1.79886        1.16567
H          0.40111       -0.06922        0.22581
H         -1.47467        2.06429       -0.11040
H         -2.52374        1.54121       -1.44623
H         -3.21370        0.29869        1.15969
H         -3.83979       -0.13621       -0.45585
H         -3.17531       -1.38338        0.60326
H          0.37967       -1.86166        1.89973
H         -1.35175       -2.12003        1.66037
H         -0.95854       -0.53931       -2.04998
H         -0.37614        1.30252        1.77711
H          0.29017        1.62226       -1.43288
H         -0.64885       -2.40197       -0.65773
O          1.92961        2.10308       -0.71301
H          2.42525        2.62586       -1.34828
H          2.49784        1.32675       -0.46562
O          0.37211        2.90582        1.37489
H          0.77703        3.41095        2.08290
H          1.04519        2.78156        0.67810
O          2.52321       -2.45022       -0.29855
H          2.87053       -3.11788       -0.89283
H          1.55173       -2.60708       -0.20450
O          3.41342        0.04318        0.00023
H          3.09589       -0.87390       -0.18091
H          3.75166        0.03242        0.89871

