33
109-44-98482-wb97xd.log	Energy: -504681.6276192
O          1.58503       -0.98925        1.02712
O          0.50850        1.03441       -1.84430
O          0.14083        1.71778        1.41839
O          0.21585       -2.46616       -0.82625
C          1.59272        0.13028        0.13154
C          0.44118       -0.01553       -0.89653
C          1.44687        1.44687        0.91441
C          2.96076        0.11948       -0.53946
C          0.43921       -1.33937       -1.66592
H         -0.50283        0.03010       -0.34047
H          1.68868        2.28185        0.25294
H          2.16784        1.43288        1.74112
H          3.18846       -0.88158       -0.91422
H          2.98308        0.82419       -1.37367
H          3.73835        0.38542        0.18301
H         -0.38441       -1.30633       -2.38254
H          1.37184       -1.45561       -2.23267
H          0.83452       -0.92453        1.64529
H         -0.22422        1.64299       -1.67485
H         -0.18381        0.98016        1.97029
H          0.86273       -2.39450       -0.10564
O         -1.56635        2.44355       -0.47530
H         -0.98854        2.26750        0.31039
H         -1.79170        3.37633       -0.46979
O         -2.10889       -1.84120        0.63849
H         -1.41071       -2.22095        0.06881
H         -2.57899       -1.18809        0.08497
O         -3.13979        0.20177       -0.92356
H         -2.71240        1.06726       -0.77768
H         -4.06714        0.36628       -1.10520
O         -0.75553       -0.63523        2.51007
H         -0.95240       -0.95128        3.39438
H         -1.36009       -1.10778        1.86398

