37
39-SAc-541-87096-wb97xd.log	Energy: -896079.8813864
O         -3.21132        0.35551       -0.46056
O         -0.64985       -1.93734        0.73223
O         -1.49485        1.10604        1.90053
O         -1.55360       -0.44234       -2.49913
C         -2.59250       -0.57949        0.43353
C         -1.20835       -0.96801       -0.12744
C         -2.42731        0.02942        1.83621
C         -3.53777       -1.77019        0.52449
C         -1.21822       -1.47407       -1.57302
H         -0.59963       -0.05382       -0.12052
H         -2.13189       -0.75786        2.53525
H         -3.39100        0.44130        2.14823
H         -3.05968       -2.60001        1.04950
H         -4.45188       -1.48429        1.05293
H         -3.82619       -2.10357       -0.47552
H         -0.20791       -1.80645       -1.82603
H         -1.89282       -2.33058       -1.68766
H         -2.80491        1.23303       -0.36928
H          0.31380       -1.88692        0.64423
H         -0.58285        0.77600        1.92038
H         -2.40805       -0.09029       -2.19875
O          0.12987        1.65021       -1.97998
H         -0.44383        2.16789       -1.37617
H         -0.42188        0.89890       -2.30237
O         -1.62586        2.74225       -0.17835
H         -1.49306        2.32754        0.70788
H         -1.85723        3.66512       -0.04931
O          4.81301       -1.54260       -0.22025
H          3.95126       -1.96198       -0.35864
H          5.23360       -1.47275       -1.08176
S          2.20807        0.32717        0.38761
O          2.27835        1.09126       -0.95227
H          1.31500        1.31333       -1.39434
O          3.65950        0.52657        0.95197
H          4.25953       -0.16120        0.54546
O          1.28337        0.96052        1.31046
O          2.00581       -1.10684        0.12937

