24
109-65-67742-wb97xd.log	Energy: -360794.9621294
O          1.16146        0.64967       -1.12325
O         -0.75758       -1.21162       -1.02331
O          0.99259       -1.19149        1.13352
O         -3.33738       -0.61664       -0.02539
C          0.20490        0.80946       -0.06364
C         -1.08169        0.08200       -0.51575
C          0.78389        0.20681        1.22697
C         -0.02342        2.30445        0.12013
C         -2.17746       -0.04635        0.53838
H         -1.49783        0.62724       -1.37100
H          0.09345        0.38272        2.05843
H          1.72352        0.72219        1.46325
H         -0.45761        2.73564       -0.78540
H         -0.68994        2.51008        0.96271
H          0.93093        2.80412        0.30958
H         -1.81623       -0.65532        1.38063
H         -2.46475        0.93643        0.92253
H          0.86787       -0.11691       -1.63922
H         -0.25649       -1.66054       -0.31962
H          1.89210       -1.32696        0.78859
H         -3.05703       -1.40027       -0.51287
O          3.36347       -0.77701       -0.25286
H          2.85718       -0.05515       -0.66664
H          4.25695       -0.46475       -0.09716

