37
3-252-6729-wb97xd.log	Energy: -896079.8343232
O         -2.24607        0.15631        1.27789
O         -1.43094       -0.14236       -1.59611
O         -1.75319        2.31590       -0.62766
O         -1.98008       -2.39632        0.43744
C         -3.10548        0.35935        0.15289
C         -2.67822       -0.53664       -1.04298
C         -3.02715        1.85183       -0.21493
C         -4.54741        0.04690        0.56809
C         -2.69650       -2.03899       -0.74011
H         -3.40903       -0.36800       -1.84387
H         -3.30182        2.43491        0.66918
H         -3.77277        2.05190       -0.99748
H         -4.61674       -0.95695        0.99453
H         -4.87064        0.75354        1.33724
H         -5.23747        0.11382       -0.27926
H         -3.72437       -2.37514       -0.58244
H         -2.29732       -2.56725       -1.61333
H         -2.09328       -0.80326        1.35477
H         -0.70005       -0.45043       -1.03098
H         -1.42477        1.66513       -1.27360
H         -1.02815       -2.38881        0.26367
O          5.59051       -0.36909        0.37387
H          4.79385       -0.91556        0.49625
H          5.94516       -0.19992        1.24982
O          4.34623        1.37333       -1.24630
H          4.38913        2.28710       -0.95319
H          4.95488        0.85057       -0.67310
O         -0.12711        1.78106        1.50567
H         -0.86308        1.13559        1.61815
H         -0.44532        2.26543        0.71777
O          1.94561        0.49268        1.28955
S          1.89422       -0.56695        0.16486
O          3.02152       -1.46405        0.34807
O          0.56085       -1.16337        0.08700
O          2.03935        0.24745       -1.16930
H          1.04217        1.08266        1.35569
H          2.94723        0.70881       -1.22624

