37
187-SAc-641-99214-wb97xd.log	Energy: -896081.3386517
O         -1.55461        0.54460        1.10372
O         -1.97522       -0.60355       -1.59821
O         -2.44458        1.99539       -1.27649
O         -1.22762       -2.14495        0.98092
C         -2.84084        0.30626        0.52651
C         -2.78858       -0.88735       -0.46685
C         -3.26402        1.60115       -0.18843
C         -3.84853        0.03021        1.64728
C         -2.40072       -2.21968        0.18151
H         -3.80146       -1.01315       -0.87014
H         -3.23688        2.41822        0.53889
H         -4.30343        1.48232       -0.52554
H         -3.96761        0.92391        2.26592
H         -4.82901       -0.25169        1.24983
H         -3.49148       -0.77431        2.29495
H         -3.20299       -2.55459        0.84404
H         -2.28565       -2.96624       -0.61301
H         -1.19636       -0.31714        1.38441
H         -1.03509       -0.74162       -1.38733
H         -2.26523        1.18617       -1.78918
H         -0.44624       -2.14230        0.40660
O          0.02861        2.27438       -0.18366
H         -0.41298        1.68185        0.46893
H         -0.72928        2.46766       -0.77419
O          5.46866        0.07979        0.14528
H          4.80517       -0.38738       -0.39311
H          6.14405       -0.56334        0.37389
O          3.66949        1.07445        1.85146
H          4.45808        0.78531        1.33283
H          3.59874        2.02814        1.75340
S          1.84654       -0.50194       -0.57297
O          1.67937       -0.26797        0.97445
H          2.46106        0.27124        1.35673
O          1.80316        0.91415       -1.18725
H          1.00571        1.52523       -0.78296
O          3.14056       -1.08560       -0.87819
O          0.66747       -1.28203       -0.95299

