37
1-204-79122-wb97xd.log	Energy: -896080.3399829
O         -2.29410        0.15191        1.25276
O         -1.39932       -0.16796       -1.59762
O         -1.80914        2.29504       -0.67354
O         -1.93771       -2.40463        0.46093
C         -3.12903        0.31486        0.10311
C         -2.64813       -0.58776       -1.06718
C         -3.08040        1.80320       -0.28599
C         -4.57252       -0.02943        0.48664
C         -2.63284       -2.08513       -0.73989
H         -3.36384       -0.45241       -1.88781
H         -3.39277        2.39179        0.58176
H         -3.81092        1.97157       -1.09002
H         -4.93345        0.67968        1.23651
H         -5.24222        0.00691       -0.37872
H         -4.62673       -1.02840        0.92655
H         -3.65484       -2.44723       -0.60293
H         -2.19708       -2.61562       -1.59415
H         -2.12066       -0.80222        1.35052
H         -0.67347       -0.44774       -1.01154
H         -1.44849        1.64572       -1.30329
H         -0.98201       -2.36799        0.31261
O         -0.21673        1.82531        1.50250
H         -0.94146        1.16566        1.60576
H         -0.52546        2.29440        0.70199
O          5.66746       -0.49367        0.17445
H          4.84735       -0.95182        0.43071
H          6.23424       -1.14880       -0.23971
O          4.36565        1.44385       -1.12897
H          4.44320        2.27398       -0.65090
H          4.99837        0.81096       -0.71353
O          2.06595        0.30596       -1.09029
S          1.89469       -0.49135        0.25206
O          0.57744       -1.11844        0.13898
O          3.03225       -1.36497        0.48180
O          1.88804        0.58374        1.35961
H          2.96613        0.78529       -1.12492
H          0.96815        1.15421        1.39295

