37
187-230-54621-wb97xd.log	Energy: -896083.8569852
O         -1.37154        0.41777        1.04641
O         -1.54354       -0.83232       -1.62596
O         -1.88071        1.74493       -1.44019
O         -1.08010       -2.24306        1.10852
C         -2.59682        0.18824        0.35717
C         -2.46754       -1.05653       -0.56673
C         -2.87486        1.45513       -0.46240
C         -3.73683        0.00106        1.36286
C         -2.15553       -2.35515        0.18674
H         -3.43884       -1.19814       -1.05756
H         -2.91612        2.31255        0.21588
H         -3.85046        1.36160       -0.95551
H         -3.88309        0.92187        1.93467
H         -4.67877       -0.25265        0.86571
H         -3.49355       -0.79304        2.07294
H         -3.02956       -2.65903        0.76880
H         -1.95566       -3.13831       -0.55391
H         -1.07245       -0.45276        1.37461
H         -0.62948       -1.02372       -1.33198
H         -1.65996        0.87857       -1.85149
H         -0.23627       -2.24262        0.62259
O          0.40323        2.61639       -0.71288
H         -0.54090        2.33064       -0.98132
H          0.47095        2.56653        0.31783
O          4.94309        0.07977        0.92807
H          5.35440        0.92169        0.71567
H          4.13903        0.27699        1.43229
O          0.57934        2.17441        1.76641
H          1.21998        1.43781        1.70175
H         -0.27298        1.70996        1.85097
O          1.89514        0.65267       -1.33406
S          1.99033       -0.49270       -0.39151
O          2.10346       -0.04297        1.01863
O          0.93346       -1.49586       -0.62167
O          3.33127       -1.26378       -0.73738
H          1.02784        1.87756       -1.03353
H          4.08531       -0.81251       -0.27733

