37
3-SAc-413-89343-wb97xd.log	Energy: -896081.6822507
O         -1.43927        0.62645        1.01458
O         -1.53952       -0.82384       -1.53577
O         -2.06120        1.78971       -1.55324
O         -1.12391       -2.04225        1.30180
C         -2.65856        0.28976        0.34829
C         -2.48136       -1.00769       -0.48687
C         -3.02466        1.47423       -0.56061
C         -3.77367        0.11927        1.38474
C         -2.16787       -2.24545        0.35927
H         -3.43969       -1.19987       -0.98710
H         -3.14184        2.36758        0.06129
H         -3.99425        1.26139       -1.03155
H         -3.47830       -0.60183        2.15073
H         -3.96481        1.07327        1.88380
H         -4.70498       -0.22493        0.92289
H         -3.05550       -2.52858        0.93142
H         -1.92651       -3.07365       -0.31742
H         -1.10256       -0.19384        1.42068
H         -0.64159       -1.06177       -1.24196
H         -1.73514        0.93637       -1.89858
H         -0.27196       -2.14621        0.84448
O          2.25896        2.48089       -0.50731
H          2.75847        2.42471        0.35986
H          1.20499        2.62334       -0.29532
O          3.46809        1.81619        1.68872
H          3.10557        0.90547        1.66868
H          3.35177        2.16137        2.57698
O         -0.11172        2.73694        0.00683
H         -0.71950        2.63395       -0.76155
H         -0.43168        2.00047        0.57519
S          2.12964       -1.01940       -0.29836
O          3.27503       -2.14053       -0.50001
H          4.13775       -1.70424       -0.52276
O          2.41956        0.02683       -1.30799
H          2.35199        1.56623       -0.91624
O          0.90050       -1.78180       -0.55776
O          2.23598       -0.52480        1.08532

