37
3-303-82059-wb97xd.log	Energy: -896080.8178753
O         -2.08907       -0.48248       -1.24408
O         -1.29399        0.65657        1.37288
O         -1.17286       -2.00924        1.25076
O         -2.33399        2.18691       -0.91022
C         -2.83573       -0.66824       -0.04045
C         -2.63422        0.54122        0.91564
C         -2.45449       -1.99505        0.64273
C         -4.29784       -0.76990       -0.47411
C         -3.02685        1.88099        0.29381
H         -3.29868        0.38799        1.78107
H         -2.53859       -2.79576       -0.10264
H         -3.17177       -2.19642        1.44449
H         -4.55314        0.04375       -1.15686
H         -4.46141       -1.70945       -1.00886
H         -4.97461       -0.73379        0.38480
H         -4.10985        1.89914        0.12065
H         -2.79162        2.67530        1.00817
H         -1.15172       -0.71261       -1.12162
H         -0.97625       -0.23438        1.61024
H         -0.48727       -2.09875        0.56999
H         -2.26149        1.35356       -1.41103
O          0.22730        2.38999       -0.04053
H         -0.59892        2.56306       -0.54431
H         -0.12622        1.84558        0.69661
O          5.03112        0.14107       -0.53781
H          4.92249        0.38930        0.41098
H          5.15122        0.95543       -1.03435
O          4.23473        0.66278        1.95855
H          3.32187        0.36299        1.79583
H          4.54713        0.19879        2.73899
O          2.95826       -1.21789       -1.12995
S          1.69948       -0.53857       -0.52443
O          0.55950       -1.37539       -0.90564
O          1.84488       -0.32452        0.91728
O          1.66139        0.82409       -1.25139
H          3.80732       -0.67717       -0.93106
H          1.03652        1.55127       -0.72474

