30
274-582-97238-wb97xd.log	Energy: -456714.3240189
O          0.06365        1.38730       -0.82858
O         -1.79270       -0.39876       -1.54453
O          0.18743       -1.44435       -0.06044
O         -4.12700       -0.79551       -0.01156
C         -0.66822        0.79721        0.25485
C         -2.01674        0.32695       -0.33761
C          0.14132       -0.36338        0.84683
C         -0.85279        1.88965        1.29974
C         -2.89049       -0.50135        0.60074
H         -2.58208        1.21582       -0.63952
H         -0.32130       -0.67936        1.79392
H          1.15133        0.00275        1.07194
H         -1.40009        2.73244        0.87033
H         -1.39922        1.52233        2.17228
H          0.12311        2.25003        1.63997
H         -2.36325       -1.42584        0.87903
H         -3.11725        0.05608        1.51395
H         -0.16129        0.88140       -1.62380
H         -1.18643       -1.12569       -1.31499
H          1.06228       -1.88312        0.00281
H         -3.92957       -1.11195       -0.90119
O          2.70083        1.90237       -0.43568
H          2.78855        2.80844       -0.13383
H          1.74787        1.74169       -0.60840
O          4.31320       -0.22688        0.02543
H          4.94601       -0.23733       -0.69664
H          3.76567        0.57719       -0.10542
O          2.69416       -2.38453        0.22361
H          3.33067       -1.63747        0.15426
H          2.95001       -2.89905        0.99205

