30
109-117-99872-wb97xd.log	Energy: -456716.3526786
O          2.33702        1.18284       -0.73209
O         -0.25124        1.76988       -0.34049
O          2.62129       -1.50128       -0.62402
O         -0.02068       -1.85026       -0.88529
C          1.68846        0.53584        0.36188
C          0.18057        0.45289        0.01399
C          2.35777       -0.83138        0.58925
C          1.87957        1.40095        1.60387
C         -0.21961       -0.47493       -1.14332
H         -0.38365        0.16707        0.90861
H          1.74198       -1.43918        1.26471
H          3.32632       -0.65911        1.06846
H          1.38186        2.36604        1.48976
H          1.46222        0.90007        2.48405
H          2.94557        1.57546        1.76954
H         -1.27429       -0.27437       -1.37151
H          0.36385       -0.22518       -2.03600
H          2.67542        0.47160       -1.29776
H          0.43580        2.13124       -0.92016
H          1.78515       -1.93106       -0.88004
H         -0.62362       -2.10851       -0.15937
O         -2.95293        1.99304       -0.33667
H         -1.97405        2.01146       -0.39313
H         -3.20868        2.71008        0.24813
O         -1.81727       -2.02087        1.15630
H         -2.60506       -1.51979        0.84557
H         -2.13922       -2.76662        1.66644
O         -3.83708       -0.51424        0.18074
H         -4.30300       -0.79787       -0.60914
H         -3.56007        0.41565        0.02000

