30
7-593-95149-wb97xd.log	Energy: -456716.4851697
O          3.23774        0.54549       -0.25916
O          2.12410       -1.90967        0.13987
O          0.00702        0.75980        1.47941
O         -0.57588       -1.59923        0.55302
C          1.81587        0.47225       -0.23604
C          1.44034       -0.96772       -0.67373
C          1.39750        0.83504        1.20440
C          1.31198        1.50278       -1.23709
C         -0.04514       -1.32519       -0.73940
H          1.85319       -1.07588       -1.68425
H          1.77852        1.84059        1.41524
H          1.88484        0.14376        1.89921
H          0.22978        1.64324       -1.17674
H          1.78730        2.46493       -1.02699
H          1.58002        1.21012       -2.25677
H         -0.61320       -0.52964       -1.23744
H         -0.16163       -2.24534       -1.31704
H          3.56568       -0.27051        0.14148
H          1.50210       -2.20106        0.81969
H         -0.50227        1.47474        1.03889
H         -0.50728       -0.74917        1.05661
O         -3.62634        0.77275       -0.63204
H         -3.90218        0.75773       -1.55108
H         -3.55451       -0.16499       -0.34480
O         -3.23151       -1.80820        0.08921
H         -3.73767       -2.25382        0.77198
H         -2.28317       -1.86650        0.34329
O         -1.67815        2.44899        0.20700
H         -2.40919        1.87165       -0.11065
H         -2.08950        3.16790        0.69202

