30
274-593-90077-wb97xd.log	Energy: -456714.3811668
O          0.15205        1.23535       -0.88490
O         -1.71771       -0.57399       -1.50681
O          0.13020       -1.50616        0.20540
O         -4.15392       -0.71775       -0.09505
C         -0.66125        0.79041        0.21142
C         -1.98768        0.29591       -0.40915
C          0.07284       -0.32149        0.97401
C         -0.86470        1.99707        1.11754
C         -2.94799       -0.38925        0.55956
H         -2.49936        1.16022       -0.84738
H         -0.45345       -0.51656        1.91956
H          1.08057        0.03689        1.21848
H         -1.36849        2.79838        0.57100
H         -1.46251        1.74105        1.99617
H          0.10420        2.37034        1.46327
H         -2.47438       -1.28948        0.97845
H         -3.21020        0.27916        1.38450
H         -0.02907        0.63784       -1.62545
H         -1.14874       -1.28219       -1.15383
H          1.04072       -1.87005        0.22791
H         -3.91244       -1.14382       -0.92614
O          2.69586       -2.30675        0.32783
H          3.33723       -1.58902        0.12510
H          3.03045       -2.77040        1.09838
O          2.67915        1.90247       -0.18778
H          2.85270        2.82245       -0.39625
H          1.77383        1.69400       -0.50645
O          4.34574       -0.23810       -0.22804
H          3.81725        0.58890       -0.22137
H          4.80344       -0.26430       -1.07138

