30
142-344-94586-wb97xd.log	Energy: -456717.5909876
O         -1.75377       -0.36505       -1.70529
O         -0.22213       -0.30804        1.63300
O         -1.14001        2.15718       -0.71234
O          1.26230       -2.29988        0.58725
C         -1.76592       -0.16555       -0.29573
C         -0.36988       -0.56400        0.24199
C         -2.04579        1.31945       -0.01845
C         -2.88290       -1.01838        0.28941
C         -0.03315       -2.03628        0.04657
H          0.37423        0.02104       -0.31899
H         -2.02896        1.51146        1.06106
H         -3.04739        1.54968       -0.39532
H         -3.85743       -0.60708        0.01135
H         -2.83347       -2.03771       -0.10146
H         -2.80685       -1.05187        1.38001
H         -0.76513       -2.67290        0.55574
H         -0.01001       -2.29287       -1.01274
H         -1.32399        0.41266       -2.08643
H          0.17462        0.57335        1.72903
H         -0.38063        2.32768       -0.13229
H          1.25160       -1.89490        1.46672
O          0.97590        2.18110        1.16433
H          1.20893        2.89557        1.76145
H          1.77555        1.98052        0.61444
O          2.98399        1.56190       -0.45882
H          3.12202        0.59531       -0.59106
H          2.89346        1.93998       -1.33721
O          3.18295       -1.08690       -0.87862
H          4.00282       -1.58521       -0.86527
H          2.52265       -1.59852       -0.35791

