30
7-659-98465-wb97xd.log	Energy: -456716.6621091
O         -3.25106        0.51189        0.25326
O         -2.11281       -1.91473       -0.15403
O         -0.00573        0.95098       -1.40711
O          0.51619       -1.52815       -0.61326
C         -1.82811        0.46823        0.23859
C         -1.43220       -0.97200        0.66200
C         -1.40543        0.85855       -1.19176
C         -1.34788        1.49437        1.25493
C          0.05318       -1.31411        0.71621
H         -1.83740       -1.09456        1.67338
H         -1.83103        1.84259       -1.40132
H         -1.84607        0.14745       -1.90346
H         -0.26480        1.63271        1.21616
H         -1.82065        2.45724        1.04273
H         -1.63474        1.19398        2.26718
H          0.61749       -0.50980        1.20398
H          0.18355       -2.23372        1.29730
H         -3.55859       -0.31079       -0.15025
H         -1.50574       -2.17163       -0.86012
H          0.35596        0.04450       -1.31626
H          1.46401       -1.79020       -0.56549
O          1.84710        2.44429       -0.17595
H          1.10758        1.99427       -0.64780
H          2.14198        3.16036       -0.74325
O          3.11723       -1.89364       -0.14203
H          3.39026       -0.99641        0.15752
H          3.79493       -2.21035       -0.74270
O          3.65754        0.61947        0.66948
H          3.03027        1.30969        0.35404
H          3.82790        0.80359        1.59577

