30
4-208-83703-wb97xd.log	Energy: -456716.8879178
O          0.19374       -1.99640       -0.03750
O          2.63417       -1.23023       -0.66470
O          0.06201        1.61378       -0.69994
O          2.74612        1.46959       -0.49284
C          0.47073       -0.63971        0.28442
C          2.00744       -0.65585        0.46872
C         -0.01284        0.21193       -0.90613
C         -0.23094       -0.22995        1.57762
C          2.71325        0.67720        0.68912
H          2.19572       -1.27932        1.35672
H         -1.06828       -0.01868       -1.07828
H          0.54383       -0.07711       -1.80498
H          0.08979       -0.87355        2.40206
H         -0.02117        0.81217        1.83434
H         -1.31380       -0.33444        1.46186
H          2.21290        1.26949        1.45818
H          3.73834        0.47688        1.02194
H         -0.77217       -2.11882       -0.14241
H          2.08750       -1.98576       -0.92056
H          1.00403        1.86536       -0.71601
H          3.05950        0.88683       -1.19770
O         -3.79713        0.22894       -0.19072
H         -3.27966        1.04165        0.00959
H         -4.39779        0.46072       -0.90267
O         -2.54822       -2.18127       -0.26947
H         -3.02917       -1.32519       -0.25339
H         -3.00779       -2.76399        0.33902
O         -2.30468        2.43801        0.27212
H         -2.22296        2.76181        1.17182
H         -1.39274        2.28095       -0.05765

