27
109-274-100022-wb97xd.log	Energy: -408755.6855061
O          0.68015        0.95953       -0.99860
O         -1.24181       -0.86643       -1.32890
O          0.51585       -1.48523        0.64029
O         -3.76397       -0.58467       -0.09437
C         -0.21088        0.79541        0.11680
C         -1.52715        0.23563       -0.46755
C          0.42027       -0.16312        1.13923
C         -0.39462        2.17277        0.73810
C         -2.57952       -0.18016        0.55632
H         -1.96488        1.00259       -1.11666
H         -0.19408       -0.17764        2.04803
H          1.40980        0.22104        1.41454
H         -0.84615        2.85724        0.01549
H         -1.03006        2.12938        1.62678
H          0.57716        2.57865        1.03482
H         -2.18651       -0.99106        1.18753
H         -2.84652        0.66090        1.20231
H          0.45717        0.25789       -1.62901
H         -0.72242       -1.49325       -0.79177
H          1.45876       -1.68597        0.47278
H         -3.50340       -1.19610       -0.79346
O          3.32121        0.99315       -0.37837
H          2.39322        1.10188       -0.67745
H          3.86796        1.59862       -0.88245
O          3.20960       -1.64590        0.25342
H          3.45882       -0.73807       -0.01490
H          3.65421       -2.25284       -0.34169

