27
1-268-38187-wb97xd.log	Energy: -408754.7606657
O         -1.38129        0.32386        1.45765
O          0.52622        1.51129        0.23133
O         -1.87133       -2.00785        0.25003
O          0.74064       -1.45546       -0.11625
C         -1.62433        0.43429        0.05826
C         -0.25388        0.71425       -0.65408
C         -2.33310       -0.85326       -0.41454
C         -2.53748        1.63836       -0.15062
C          0.54400       -0.49552       -1.13437
H         -0.45345        1.32833       -1.54185
H         -2.25511       -0.94458       -1.50754
H         -3.39441       -0.77216       -0.16431
H         -2.01465        2.56312        0.10847
H         -2.85544        1.70241       -1.19707
H         -3.42275        1.54802        0.48359
H          0.01441       -0.96839       -1.97278
H          1.50565       -0.13916       -1.52130
H         -1.31373       -0.62471        1.64825
H          0.23463        1.24705        1.12185
H         -0.92074       -2.13090        0.07472
H          1.69185       -1.50923        0.11130
O          3.40874       -1.26470        0.33257
H          3.79594       -1.52564        1.17092
H          3.54475       -0.29918        0.24246
O          3.21852        1.40446       -0.07605
H          2.25862        1.56652        0.04906
H          3.68106        2.23699        0.03209

