27
13-315-98288-wb97xd.log	Energy: -408756.4317234
O         -0.23905       -1.72820       -0.13952
O         -0.16566        0.93210        1.08094
O          1.27842       -1.20312        1.99054
O          0.55850        3.02171       -0.48050
C          0.81520       -0.78025       -0.36433
C          0.21954        0.64198       -0.26026
C          1.87764       -1.04855        0.71861
C          1.37262       -1.04656       -1.75543
C          1.15861        1.76710       -0.70212
H         -0.67019        0.67458       -0.90389
H          2.63200       -0.25154        0.72160
H          2.38261       -1.99325        0.49742
H          0.64328       -0.77851       -2.52617
H          2.28776       -0.47297       -1.93149
H          1.60471       -2.10953       -1.85613
H          2.11674        1.69637       -0.16423
H          1.36319        1.69837       -1.77287
H         -0.24406       -1.89741        0.81634
H         -1.14306        0.86442        1.14636
H          0.81633       -0.36915        2.17325
H          0.22325        2.99852        0.42453
O         -2.72604       -1.13547       -1.06169
H         -1.83485       -1.46481       -0.81609
H         -3.28103       -1.90258       -1.21815
O         -2.85817        0.68657        0.94354
H         -3.34488        1.47857        0.70338
H         -2.99742        0.03794        0.22074

