27
12-127-3270-wb97xd.log	Energy: -408756.0920393
O         -2.15955       -0.72698       -0.93801
O          0.38017       -1.72190       -0.70325
O         -1.98424        1.85484       -0.11999
O          0.70860        1.90013       -0.42804
C         -1.40759       -0.51368        0.25558
C          0.09667       -0.47497       -0.09427
C         -1.94947        0.79940        0.82926
C         -1.67451       -1.63130        1.26606
C          0.54683        0.63578       -1.05441
H          0.65895       -0.36381        0.84514
H         -1.32240        1.13657        1.65937
H         -2.96104        0.61825        1.21333
H         -1.27963       -2.57806        0.89327
H         -1.19039       -1.41339        2.22464
H         -2.75049       -1.73341        1.43058
H          1.52872        0.35437       -1.44261
H         -0.14052        0.70396       -1.90542
H         -1.72529       -1.43884       -1.42473
H          1.34047       -1.85920       -0.62041
H         -2.38832        1.48788       -0.91741
H         -0.18481        2.25298       -0.27554
O          3.02897        1.21756        0.83134
H          3.18229        1.52317        1.72749
H          2.21954        1.66241        0.50600
O          3.06760       -1.41804       -0.01150
H          3.87251       -1.58414       -0.50628
H          3.13645       -0.50499        0.33495

