27
12-289-85508-wb97xd.log	Energy: -408755.7149024
O          0.65896        1.06811       -0.91835
O         -1.21688       -0.76731       -1.39512
O          0.52919       -1.48252        0.55896
O         -3.74850       -0.65011       -0.14700
C         -0.23551        0.80982        0.17454
C         -1.53500        0.25681       -0.45376
C          0.41030       -0.19699        1.13839
C         -0.46250        2.13845        0.88291
C         -2.57454       -0.26559        0.53393
H         -1.99573        1.05699       -1.04427
H         -0.20213       -0.27313        2.04605
H          1.39464        0.18590        1.43455
H         -0.91428        2.85978        0.19747
H         -1.11375        2.02332        1.75352
H          0.49297        2.54644        1.22678
H         -2.15860       -1.11186        1.10055
H         -2.86383        0.51529        1.24291
H          0.43023        0.43282       -1.61423
H         -0.68148       -1.41908       -0.90619
H          1.48081       -1.68326        0.44704
H         -3.47355       -1.20133       -0.88926
O          3.36567        0.90714       -0.64061
H          3.79178        1.70396       -0.31881
H          2.40856        1.09761       -0.73697
O          3.23647       -1.60349        0.36114
H          3.72927       -2.24594       -0.15368
H          3.45925       -0.71711        0.00634

