27
142-487-95498-wb97xd.log	Energy: -408754.3570001
O          1.55729       -1.18244       -0.95656
O         -0.28902        1.00471        1.32029
O         -0.90352       -2.00859       -0.49976
O          2.04067        1.44412       -1.42094
C          1.01676       -0.73612        0.28808
C          0.34524        0.64996        0.11244
C         -0.05026       -1.78622        0.61762
C          2.08824       -0.71976        1.37409
C          1.31119        1.78300       -0.24010
H         -0.38501        0.55366       -0.70300
H         -0.66987       -1.44920        1.44991
H          0.44525       -2.72741        0.88672
H          2.48551       -1.72752        1.52299
H          2.92242       -0.07546        1.08185
H          1.67434       -0.34934        2.31643
H          0.72033        2.69240       -0.40013
H          1.98970        1.95331        0.60461
H          1.99007       -0.42928       -1.38596
H         -1.16186        1.38578        1.10369
H         -0.31820       -2.00757       -1.27235
H          2.68145        2.13072       -1.61881
O         -2.69472        1.83914        0.32708
H         -3.01824        1.00356       -0.07338
H         -3.41065        2.19396        0.85774
O         -3.19793       -0.59339       -0.76700
H         -2.37910       -1.12897       -0.67435
H         -3.93526       -1.19226       -0.63355

