27
39-491-70790-wb97xd.log	Energy: -408754.4668300
O          1.57139       -1.18146       -0.94220
O         -0.29142        1.01813        1.30948
O         -0.88778       -2.01272       -0.51135
O          2.03805        1.44219       -1.43492
C          1.01719       -0.73148        0.29583
C          0.34621        0.65318        0.10707
C         -0.05194       -1.78237        0.61791
C          2.07759       -0.70950        1.39226
C          1.31240        1.78409       -0.25205
H         -0.38272        0.54914       -0.70898
H         -0.68398       -1.44335        1.43995
H          0.44176       -2.72086        0.89917
H          1.65271       -0.33892        2.32955
H          2.47645       -1.71573        1.54687
H          2.91285       -0.06297        1.10797
H          0.72214        2.69379       -0.41254
H          1.99381        1.95634        0.58981
H          2.00407       -0.42819       -1.37168
H         -1.16534        1.39436        1.08692
H         -0.28828       -2.00430       -1.27288
H          2.69008        2.12018       -1.62590
O         -2.71519        1.82707        0.32846
H         -3.00541        0.97895       -0.07311
H         -3.41394        2.09871        0.92766
O         -3.22875       -0.63727       -0.66258
H         -2.40450       -1.17058       -0.62248
H         -3.64886       -0.83762       -1.50147

