27
274-406-100208-wb97xd.log	Energy: -408755.7723634
O         -0.34170       -1.69368       -0.22324
O         -0.14014        0.93810        1.06559
O          1.07643       -1.32058        2.00860
O          0.80660        2.99081       -0.45652
C          0.78895       -0.82117       -0.35912
C          0.29365        0.63931       -0.25839
C          1.76169       -1.18628        0.77868
C          1.41599       -1.10290       -1.71789
C          1.33449        1.69796       -0.62978
H         -0.55597        0.74714       -0.94691
H          2.56872       -0.44559        0.84471
H          2.21120       -2.16061        0.56625
H          0.76938       -0.75421       -2.52948
H          2.38685       -0.60798       -1.81717
H          1.56173       -2.17961       -1.83274
H          2.24186        1.56375       -0.02030
H          1.61503        1.61034       -1.68193
H         -0.40465       -1.90440        0.72210
H         -1.12152        0.96335        1.07844
H          0.66519       -0.45787        2.17907
H          0.38515        2.99700        0.41193
O         -2.87798       -1.06620       -0.99876
H         -1.95482       -1.36592       -0.86227
H         -3.04854       -1.06074       -1.94280
O         -2.82506        0.97130        0.77511
H         -3.46163        0.85212        1.48312
H         -3.01180        0.28369        0.10073

