27
39-483-85571-wb97xd.log	Energy: -408755.4350106
O         -0.34437        1.67367        0.06168
O         -0.57595       -1.99128        0.28234
O          2.08641       -0.02832        0.18638
O         -2.47064        0.66920       -1.23584
C         -0.31484        0.39509        0.71839
C         -0.72156       -0.71179       -0.29117
C          1.12560        0.18202        1.20413
C         -1.23615        0.42482        1.93697
C         -2.18075       -0.63980       -0.74075
H         -0.07526       -0.59522       -1.17066
H          1.14556       -0.70547        1.84098
H          1.40540        1.05128        1.81454
H         -1.33260       -0.57625        2.36685
H         -0.83979        1.10535        2.69671
H         -2.23016        0.78491        1.65673
H         -2.33209       -1.39091       -1.52337
H         -2.82926       -0.88679        0.10864
H         -1.17158        1.71898       -0.44437
H          0.24869       -2.38881       -0.05482
H          2.24468        0.80446       -0.30090
H         -3.39839        0.73238       -1.47306
O          1.90121       -2.53496       -0.77376
H          2.56840       -3.14155       -0.44671
H          2.17323       -1.63156       -0.50639
O          2.01614        2.41581       -1.03722
H          2.39855        3.21551       -0.66960
H          1.08843        2.36881       -0.72858

