27
136-379-96671-wb97xd.log	Energy: -408755.4513114
O         -0.55465       -1.63874        0.07841
O         -0.16950        1.14239        0.83158
O          1.04316       -0.95855        2.09553
O          2.26877        1.83472       -0.26174
C          0.60135       -0.87143       -0.29860
C          0.15790        0.60427       -0.44692
C          1.64440       -1.07549        0.81611
C          1.11091       -1.43640       -1.61730
C          1.16012        1.56342       -1.09430
H         -0.73852        0.59170       -1.08276
H          2.46920       -0.36793        0.68466
H          2.03500       -2.09571        0.75556
H          1.17774       -2.52410       -1.53996
H          0.43405       -1.19191       -2.44280
H          2.10311       -1.04288       -1.85611
H          1.55499        1.16095       -2.03003
H          0.62085        2.49149       -1.32995
H         -0.53298       -1.68346        1.04833
H         -1.11721        1.39125        0.83112
H          0.66282       -0.06722        2.13357
H          1.91151        2.16825        0.56964
O         -2.81279        1.58514        0.42896
H         -3.08120        0.72894        0.03199
H         -3.45015        1.78750        1.11715
O         -3.08934       -0.90885       -0.57293
H         -2.18521       -1.26191       -0.42405
H         -3.39725       -1.24005       -1.41877

