30
3-814-68309-wb97xd.log	Energy: -456714.8465153
O         -1.78516        0.79443       -1.19495
O          0.07995       -1.07329        0.01982
O         -2.20521       -1.83390       -1.22112
O          0.36329        1.90737       -0.02478
C         -2.01720        0.22192        0.08195
C         -0.68482       -0.14736        0.78742
C         -2.83642       -1.04412       -0.22047
C         -2.84020        1.16756        0.95924
C          0.20769        1.05452        1.09156
H         -0.94663       -0.61198        1.75219
H         -3.83984       -0.74971       -0.55303
H         -2.93466       -1.67277        0.66897
H         -2.32713        2.12472        1.07866
H         -3.80174        1.36529        0.47821
H         -3.02567        0.74201        1.95191
H         -0.23684        1.62950        1.91256
H          1.17877        0.68002        1.43797
H         -1.00459        1.37293       -1.10684
H         -0.52868       -1.60884       -0.52012
H         -2.07345       -1.23473       -1.97005
H          1.27533        1.82296       -0.37709
O          2.92769        1.72696       -0.83959
H          3.50111        2.43131       -0.52958
H          3.42394        0.88763       -0.71339
O          2.40858       -1.90979        1.07798
H          2.37788       -2.81142        1.40308
H          1.52904       -1.69873        0.69307
O          4.25375       -0.60054       -0.41236
H          4.44480       -1.12001       -1.19668
H          3.67100       -1.15318        0.15195

