30
1-830-83457-wb97xd.log	Energy: -456714.8850701
O         -1.79736        0.77436       -1.20805
O          0.01455       -1.11750        0.03334
O         -2.33352       -1.83347       -1.12045
O          0.39179        1.86046       -0.09064
C         -2.02774        0.26188        0.09400
C         -0.69798       -0.14232        0.78638
C         -2.90918       -0.97566       -0.14360
C         -2.78716        1.27659        0.95132
C          0.24393        1.03220        1.04388
H         -0.96317       -0.56864        1.76829
H         -3.90381       -0.64744       -0.47114
H         -3.02052       -1.56275        0.77234
H         -3.75037        1.49858        0.48446
H         -2.96769        0.89814        1.96384
H         -2.22932        2.21344        1.02113
H         -0.15326        1.63137        1.87272
H          1.21370        0.62856        1.36161
H         -0.99566        1.32677       -1.15645
H         -0.62528       -1.65493       -0.46724
H         -2.19103       -1.27395       -1.89739
H          1.31584        1.80897       -0.41705
O          2.40889       -2.16155        0.72855
H          1.51789       -1.81622        0.50037
H          2.35418       -2.53991        1.60816
O          4.33077       -0.51940       -0.21907
H          3.68704       -1.15002        0.17291
H          4.74842       -0.98330       -0.94855
O          2.98664        1.75480       -0.80520
H          3.49575        0.93181       -0.62807
H          3.52198        2.48179       -0.47969

