30
1-473-90537-wb97xd.log	Energy: -456715.4447872
O          0.26565        0.63152       -0.67994
O          1.98549       -1.65481        0.02542
O         -0.55351       -1.71858        0.81145
O          2.66706        0.14712       -1.84155
C          0.75398        0.39528        0.63201
C          2.12478       -0.30597        0.47354
C         -0.23215       -0.48446        1.42794
C          0.91290        1.71523        1.39701
C          3.06454        0.40673       -0.50835
H          2.59430       -0.35186        1.46293
H         -1.17136        0.06618        1.54672
H          0.18217       -0.66422        2.43085
H         -0.06309        2.19781        1.50169
H          1.33149        1.55284        2.39576
H          1.56526        2.40400        0.85529
H          3.10934        1.48219       -0.30193
H          4.07206       -0.00357       -0.40158
H         -0.56416        1.15158       -0.63040
H          2.08057       -1.61806       -0.93959
H          0.28199       -2.06011        0.44442
H          1.76015        0.48540       -1.91820
O         -4.11899        0.46943       -0.40910
H         -3.72573       -0.42433       -0.53888
H         -4.69658        0.40816        0.35481
O         -2.79803       -1.85687       -0.67783
H         -3.15109       -2.73721       -0.53404
H         -1.94677       -1.81082       -0.18527
O         -2.00216        2.12354       -0.32710
H         -2.14666        2.85594       -0.93070
H         -2.82031        1.57445       -0.35563

