30
187-190-90014-wb97xd.log	Energy: -456719.3803923
O         -0.42243       -0.49946       -1.22408
O          0.00639        0.61235        1.48175
O         -0.14705       -1.98105        1.28766
O         -0.37241        2.21535       -1.01651
C         -1.42824       -0.47316       -0.21609
C         -1.21745        0.71658        0.75985
C         -1.33243       -1.81685        0.53042
C         -2.80911       -0.38215       -0.87472
C         -1.25169        2.09155        0.09252
H         -2.05061        0.69242        1.48005
H         -1.42790       -2.62038       -0.21102
H         -2.17235       -1.89583        1.22865
H         -2.99497       -1.28717       -1.45965
H         -3.60878       -0.27621       -0.13399
H         -2.85382        0.46714       -1.56137
H         -2.25820        2.29355       -0.28192
H         -1.02309        2.84678        0.85538
H         -0.28860        0.41489       -1.52619
H          0.15409       -0.34796        1.64548
H          0.58928       -2.21721        0.67139
H          0.53482        2.33499       -0.68790
O          3.57657       -0.24223       -0.49853
H          3.14246        0.57458       -0.19112
H          4.47132       -0.23509       -0.15303
O          2.04137        1.91934        0.44059
H          1.35877        1.40689        0.94621
H          2.40078        2.58220        1.03558
O          1.66179       -2.28597       -0.67669
H          1.05728       -1.73251       -1.19739
H          2.44921       -1.72351       -0.56452

