30
1-266-96380-wb97xd.log	Energy: -456719.2504778
O         -0.42127       -0.46046       -1.19201
O          0.00015        0.59841        1.54469
O         -0.47858       -2.02550        1.31614
O         -0.03391        2.14114       -0.99316
C         -1.46832       -0.32899       -0.22337
C         -1.15948        0.83032        0.76399
C         -1.58641       -1.68057        0.50100
C         -2.78731       -0.06831       -0.95823
C         -0.97404        2.18259        0.06939
H         -2.03451        0.92257        1.42854
H         -1.76233       -2.45637       -0.25627
H         -2.45822       -1.65064        1.16148
H         -3.05476       -0.94128       -1.56056
H         -3.60555        0.13725       -0.26048
H         -2.68591        0.78129       -1.63733
H         -1.92574        2.51877       -0.35136
H         -0.66674        2.91195        0.82843
H         -0.13536        0.45519       -1.40973
H          0.02340       -0.34717        1.77434
H          0.25484       -2.32296        0.75086
H          0.87281        2.17663       -0.60223
O          2.22758        1.90481        0.44085
H          1.66120        1.46306        1.09496
H          2.83095        1.20141        0.14121
O          3.59719       -0.46071       -0.20038
H          4.36617       -0.62181       -0.75053
H          2.95157       -1.16488       -0.39284
O          1.47106       -2.22297       -0.72291
H          1.51252       -2.91853       -1.38391
H          0.81131       -1.55253       -1.03693

