33
1-163-92456-wb97xd.log	Energy: -504679.7544865
O          0.18676       -0.30066        1.15072
O          0.76290        0.16524       -1.66759
O         -0.80120       -1.90340       -1.07023
O          2.05328        1.65087        0.69128
C          1.05899       -1.13856        0.39909
C          1.72779       -0.33159       -0.74831
C          0.20826       -2.28832       -0.15796
C          2.11994       -1.74143        1.32714
C          2.65651        0.78346       -0.25841
H          2.34534       -1.03307       -1.32421
H         -0.28654       -2.78247        0.68479
H          0.88323       -3.01641       -0.63134
H          1.64406       -2.41643        2.04392
H          2.87527       -2.30354        0.76780
H          2.62265       -0.95612        1.89716
H          3.53301        0.34719        0.22778
H          3.00520        1.34591       -1.13357
H          0.68903        0.50282        1.36913
H          0.39012        1.01103       -1.34945
H         -0.46554       -1.13286       -1.56578
H          1.46070        2.26397        0.21930
O         -2.27798        2.77066        0.38639
H         -2.47549        1.83811        0.67936
H         -2.45316        3.33778        1.14057
O         -2.55153        0.29105        1.20762
H         -3.05978       -0.34245        0.66603
H         -1.63687       -0.04357        1.19896
O          0.03424        2.72592       -0.83800
H          0.00828        3.35183       -1.56564
H         -0.84044        2.79632       -0.36165
O         -3.46016       -1.66249       -0.51741
H         -2.54001       -1.87888       -0.77256
H         -3.89851       -2.48802       -0.30214

