33
187-308-95396-wb97xd.log	Energy: -504678.2449604
O          0.51130       -0.28124        1.26315
O          0.76343        0.28222       -1.63499
O         -1.06674       -1.45408       -0.79687
O          2.55134        1.42535        0.63826
C          1.12092       -1.16608        0.33022
C          1.75202       -0.38399       -0.85681
C          0.01396       -2.10752       -0.16227
C          2.18707       -2.00946        1.03915
C          2.88087        0.56661       -0.44271
H          2.19727       -1.12806       -1.53048
H         -0.39492       -2.63660        0.70417
H          0.46086       -2.85075       -0.83888
H          1.71494       -2.63728        1.79972
H          2.72578       -2.65560        0.33800
H          2.91272       -1.36790        1.54578
H          3.74836       -0.01596       -0.12157
H          3.17835        1.14616       -1.32604
H          1.17831        0.39166        1.48228
H          0.60890        1.18679       -1.29958
H         -0.68812       -0.73325       -1.33405
H          1.95122        2.12243        0.31588
O          0.40941        2.76677       -0.46769
H          0.23280        3.61828       -0.87223
H         -0.38375        2.50305        0.08786
O         -1.43365        1.70186        0.99118
H         -2.37692        1.57191        0.76192
H         -1.02683        0.82267        1.08342
O         -3.74227       -1.45713       -0.31533
H         -2.77884       -1.53680       -0.48180
H         -3.97159       -2.13049        0.32879
O         -4.04796        1.15581        0.34209
H         -4.04444        0.20351        0.10202
H         -4.53188        1.61241       -0.34911

