33
3-605-69430-wb97xd.log	Energy: -504677.5974943
O         -0.74269        0.42122        1.18643
O         -0.31360       -0.52225       -1.51015
O         -0.89301        2.10660       -1.23267
O         -0.51907       -2.22176        0.90293
C         -1.82078        0.32887        0.24810
C         -1.51903       -0.77100       -0.80555
C         -1.97772        1.70962       -0.40813
C         -3.11538        0.01537        1.00462
C         -1.41397       -2.16944       -0.19600
H         -2.36509       -0.78259       -1.51277
H         -2.14406        2.44943        0.38606
H         -2.86668        1.69412       -1.04602
H         -2.97652       -0.85056        1.65555
H         -3.39260        0.86402        1.63678
H         -3.94298       -0.19173        0.31807
H         -2.39713       -2.49303        0.15801
H         -1.09638       -2.86179       -0.98460
H         -0.47002       -0.50382        1.37225
H         -0.28882        0.42795       -1.71301
H         -0.18759        2.45361       -0.66167
H          0.38288       -2.37478        0.53115
O          3.85724       -0.97901        0.53874
H          3.82383       -0.03235        0.29112
H          4.77528       -1.25280        0.49304
O          1.01005        2.35764        0.80448
H          1.02264        2.95687        1.55530
H          0.45384        1.57762        1.06107
O          1.70293       -2.30979       -0.57052
H          2.51104       -1.91246       -0.19127
H          1.28766       -1.62311       -1.11491
O          3.50095        1.64556       -0.16643
H          2.63061        1.91945        0.18502
H          3.49899        1.86979       -1.09990

