33
187-360-100758-wb97xd.log	Energy: -504678.2451543
O          0.67186       -0.19995       -1.34129
O          0.23890       -0.21452        1.61692
O          2.21013        1.37062        0.72640
O         -1.23749       -1.89041       -0.38706
C          1.57329       -0.76787       -0.39399
C          0.79983       -1.27777        0.85764
C          2.66757        0.24003        0.00415
C          2.25651       -1.92803       -1.11807
C         -0.25411       -2.33643        0.53468
H          1.53065       -1.75191        1.52500
H          3.13186        0.61707       -0.91101
H          3.43462       -0.28868        0.58900
H          2.90282       -1.53969       -1.90988
H          2.86390       -2.52767       -0.43346
H          1.51456       -2.57642       -1.58954
H          0.23240       -3.24498        0.15643
H         -0.77445       -2.59499        1.46116
H          0.21641        0.58766       -0.97396
H         -0.38918        0.30905        1.07640
H          1.57933        1.04226        1.39203
H         -0.78413       -1.34417       -1.05524
O         -0.93405        1.60363       -0.07726
H         -0.52620        2.49010       -0.03959
H         -1.87702        1.68694       -0.33877
O          0.89236        3.62141       -0.10900
H          1.06954        4.36870        0.46615
H          1.54151        2.92639        0.11817
O         -3.58035        1.52360       -0.61168
H         -3.76074        0.62006       -0.26977
H         -3.96239        1.57184       -1.49064
O         -3.70893       -1.00027        0.36703
H         -3.78856       -1.07244        1.32099
H         -2.83296       -1.37158        0.12775

