33
3-356-100455-wb97xd.log	Energy: -504678.4201372
O         -0.45581       -0.44787       -1.31424
O         -0.47460        0.02561        1.64689
O          1.33653       -1.69063        0.70425
O         -2.39500        1.22531       -0.41908
C         -0.90073       -1.38604       -0.33640
C         -1.48126       -0.65407        0.90958
C          0.24472       -2.33061        0.06723
C         -1.97809       -2.22328       -1.02448
C         -2.66542        0.26156        0.59012
H         -1.86061       -1.42537        1.59182
H          0.63875       -2.79855       -0.83900
H         -0.15835       -3.11947        0.71911
H         -2.74347       -1.58098       -1.46635
H         -1.53126       -2.80698       -1.83380
H         -2.46028       -2.90979       -0.32216
H         -3.53090       -0.34847        0.29859
H         -2.92807        0.81033        1.49801
H          0.22759        0.15031       -0.94909
H         -0.08527        0.75499        1.11771
H          0.96034       -1.06753        1.35348
H         -1.82905        0.79286       -1.08466
O          3.78071       -1.00772       -0.25318
H          2.89059       -1.30403        0.03508
H          4.41021       -1.48875        0.28903
O         -1.03946        3.58059       -0.10153
H         -1.68558        2.84783       -0.15815
H         -1.32117        4.25160       -0.72667
O          3.58516        1.69364       -0.10692
H          4.00870        2.09634       -0.86845
H          3.77021        0.72995       -0.16490
O          0.86917        1.63811       -0.09179
H          0.41784        2.49876       -0.18617
H          1.84083        1.77524       -0.05493

