33
187-447-97345-wb97xd.log	Energy: -504679.7874847
O         -0.32198       -0.30775       -1.23746
O         -0.83648        0.40231        1.51151
O          0.97319       -1.43340        1.17010
O         -2.52597        1.26042       -0.81951
C         -0.95915       -1.21738       -0.34349
C         -1.71105       -0.44471        0.77473
C          0.14311       -2.10896        0.24534
C         -1.92742       -2.10891       -1.12795
C         -2.87164        0.40914        0.26383
H         -2.14073       -1.19380        1.45919
H          0.73618       -2.50216       -0.58820
H         -0.33397       -2.95334        0.75958
H         -1.36396       -2.75596       -1.80617
H         -2.52472       -2.74019       -0.46172
H         -2.60635       -1.50404       -1.73457
H         -3.67566       -0.24045       -0.09132
H         -3.26310        0.99256        1.10687
H         -1.01022        0.32005       -1.51852
H          0.01554       -0.07992        1.59334
H          1.89318       -1.37115        0.82462
H         -2.05875        2.03805       -0.46821
O          1.47985        1.78084       -0.82960
H          0.89233        2.39571       -0.36505
H          0.96864        0.95362       -0.90856
O          3.48126       -1.37296        0.24199
H          3.76819       -0.46666       -0.02391
H          4.12424       -1.68402        0.88350
O          4.03820        1.17137       -0.41231
H          3.11795        1.50987       -0.53014
H          4.50054        1.36834       -1.23026
O         -0.73111        2.88465        0.60942
H         -0.82406        3.61274        1.22775
H         -0.71411        2.04187        1.12381

