34
2-256-96721-wb97xd.log	Energy: -848119.2584803
O          3.26194        0.63620       -1.55513
O          0.80525        1.59760       -0.60008
O          1.36666       -1.90353        0.24974
O          0.41967       -0.12685        1.84709
C          2.69618        0.06791       -0.37883
C          1.84179        1.18553        0.28500
C          1.91626       -1.17870       -0.84479
C          3.86084       -0.33274        0.51681
C          1.32904        0.95552        1.70487
H          2.51953        2.04487        0.35374
H          2.62930       -1.80908       -1.38650
H          1.12366       -0.88828       -1.54325
H          4.38837        0.55113        0.88754
H          3.52091       -0.93398        1.36374
H          4.56649       -0.92983       -0.06602
H          2.17990        0.80437        2.37887
H          0.79871        1.85565        2.02712
H          2.55557        1.09895       -2.02284
H          0.16877        0.86349       -0.72693
H          0.60663       -2.44391       -0.05647
H          0.77270       -0.91015        1.33781
O         -1.50710        3.08720       -0.35768
H         -1.56916        3.81349       -0.98337
H         -0.58846        2.75004       -0.39948
O         -0.90141       -3.29163       -0.42792
H         -1.71244       -2.76451       -0.49388
H         -1.14186       -4.09831        0.03440
O         -3.22554        1.07756       -0.50676
S         -2.37252       -0.16690       -0.08693
O         -3.21823       -1.33736       -0.16192
O         -1.14334       -0.21789       -0.88826
O         -1.99617        0.16973        1.38504
H         -2.64421        1.89686       -0.46172
H         -0.97255        0.05624        1.57675

