31
159-598-89653-wb97xd.log	Energy: -800152.8512547
O         -0.49537        1.31443       -0.42105
O         -1.41584       -0.94991        1.10239
O         -2.01038        1.68463        1.70016
O         -4.06775       -1.24513        0.43212
C         -1.83559        0.79095       -0.55534
C         -1.77273       -0.72623       -0.25920
C         -2.68858        1.57363        0.45909
C         -2.28948        1.06834       -1.98028
C         -3.05390       -1.52361       -0.51134
H         -0.99654       -1.14290       -0.91589
H         -3.66653        1.09538        0.56737
H         -2.82548        2.59640        0.09625
H         -1.76027        0.43306       -2.69783
H         -3.36336        0.89190       -2.08784
H         -2.08445        2.11212       -2.22898
H         -3.46920       -1.30543       -1.49782
H         -2.78821       -2.58877       -0.48783
H         -0.42121        1.62061        0.50057
H         -0.47676       -1.19200        1.13600
H         -1.88901        0.78188        2.03037
H         -3.71651       -1.47546        1.29951
O          4.95371        1.13465        0.23339
H          5.05510        0.31144       -0.26584
H          5.14673        1.85665       -0.37066
O          2.53023        0.44541        1.04550
S          2.24821       -0.66851       -0.04724
O          3.49923       -1.21864       -0.52213
O          1.24476       -1.54231        0.53073
O          1.63001        0.14288       -1.24200
H          3.40878        0.87321        0.84058
H          0.76840        0.60154       -0.95260

