31
109-SAc-568-80494-wb97xd.log	Energy: -800152.1739272
O          3.83049       -1.57365        0.11609
O          3.77654        1.06095       -0.67204
O          0.54328       -0.62530       -1.21170
O          1.15286        1.88712       -0.59972
C          2.59234       -0.87737        0.20632
C          2.94831        0.62288        0.39636
C          1.83756       -1.20808       -1.09519
C          1.86603       -1.43102        1.42390
C          1.81448        1.61021        0.63932
H          3.58012        0.64268        1.29234
H          1.70793       -2.29090       -1.14222
H          2.44599       -0.90464       -1.95592
H          2.39445       -1.16052        2.34272
H          0.83826       -1.06556        1.48746
H          1.83848       -2.52199        1.35993
H          1.10279        1.21293        1.36885
H          2.23892        2.54261        1.02656
H          4.40333       -1.06244       -0.47044
H          3.21987        1.48197       -1.33737
H          0.66226        0.34875       -1.18163
H          0.26395        2.20960       -0.39243
O         -5.14993       -0.82618       -0.70281
H         -5.05327       -0.78052        0.25945
H         -5.24717       -1.75452       -0.93140
S         -2.28615        0.30046        0.38091
O         -1.52507       -1.06215        0.21638
H         -0.68334       -0.95272       -0.35455
O         -2.91493        0.56159       -1.04886
H         -3.75940        0.03593       -1.12251
O         -3.34559        0.06710        1.33992
O         -1.33355        1.37454        0.59179

