31
13-376-99845-wb97xd.log	Energy: -800152.8004452
O          0.54109        1.18688        0.24099
O          2.19391        0.22389        1.89473
O          1.36128       -1.54588       -0.61043
O          3.75283       -1.57217        0.68641
C          1.77680        0.87904       -0.42312
C          2.83189        0.69268        0.72020
C          1.57008       -0.34657       -1.32374
C          2.14845        2.07317       -1.29344
C          4.02703       -0.22013        0.39155
H          3.21189        1.69383        0.95415
H          2.45615       -0.48857       -1.95284
H          0.72505       -0.14616       -1.99361
H          2.15244        2.98638       -0.69360
H          3.14267        1.93803       -1.73199
H          1.43102        2.20111       -2.10961
H          4.34279       -0.07913       -0.65155
H          4.86631        0.05835        1.03266
H          0.61459        0.78655        1.12907
H          2.38561       -0.72548        1.95208
H          0.40833       -1.68189       -0.48849
H          2.99554       -1.87255        0.15399
O         -4.83275        0.69915        1.42566
H         -5.00556        1.64148        1.50003
H         -5.06349        0.43873        0.52208
O         -1.79035        0.96063       -0.79300
S         -2.37347       -0.44227       -0.39200
O         -3.71874       -0.49902       -0.92226
O         -1.41999       -1.48508       -0.71688
O         -2.42398       -0.38030        1.19162
H         -0.85211        1.07267       -0.41645
H         -3.26757        0.07901        1.46264

