31
12-SAc-86-49349-wb97xd.log	Energy: -800153.2805778
O         -3.55700       -1.27095        0.97169
O         -1.80699        0.76905        1.76302
O         -0.70072       -0.92389       -1.31006
O         -0.83218        1.69183       -1.00184
C         -2.82968       -0.54974       -0.01749
C         -2.57390        0.86434        0.57547
C         -1.56301       -1.38922       -0.26567
C         -3.70891       -0.49167       -1.25831
C         -2.07821        1.95995       -0.36529
H         -3.56404        1.20062        0.90879
H         -1.88610       -2.39370       -0.54468
H         -0.99682       -1.46575        0.67188
H         -4.58737        0.13476       -1.07734
H         -3.16176       -0.10076       -2.12034
H         -4.05444       -1.49979       -1.50019
H         -2.80238        2.10723       -1.16997
H         -2.00987        2.89154        0.20649
H         -3.14237       -1.08204        1.82391
H         -0.87300        0.61382        1.55842
H         -0.75567        0.06206       -1.35983
H         -0.11114        1.76195       -0.35803
O          5.26118       -0.04594       -0.57473
H          6.02358        0.52997       -0.47295
H          5.11021       -0.47650        0.27888
S          2.12080       -0.12229        0.37052
O          1.60622       -1.35529       -0.42450
H          0.67760       -1.18528       -0.86945
O          2.76790        0.81761       -0.72554
H          3.73095        0.57343       -0.83334
O          0.98498        0.63630        0.88717
O          3.15062       -0.57833        1.27943

