31
136-SAc-392-52578-wb97xd.log	Energy: -800152.2858874
O          2.19244        1.14606       -1.18121
O          0.51387        0.96071        0.68338
O          3.52887       -1.12988       -1.35909
O          1.19374       -1.84428       -0.19604
C          2.82315        0.76093        0.03678
C          1.70469        0.24463        1.01486
C          3.91080       -0.28225       -0.29986
C          3.45848        2.00939        0.64028
C          1.43016       -1.25675        1.06577
H          1.97939        0.54379        2.03409
H          4.19279       -0.84332        0.60191
H          4.79953        0.25042       -0.64856
H          4.11161        2.48635       -0.09429
H          2.68765        2.72591        0.93778
H          4.04954        1.75015        1.52552
H          2.29405       -1.76579        1.50727
H          0.57819       -1.42936        1.73492
H          2.33409        0.41534       -1.80534
H          0.62111        1.21105       -0.25599
H          2.75020       -1.64967       -1.08737
H          0.24659       -1.79065       -0.40219
O         -4.77366        1.62252       -0.77803
H         -5.07938        0.89006       -0.22359
H         -4.91794        2.43174       -0.28028
S         -2.48100       -0.53276        0.09673
O         -2.41488        0.46767       -1.13159
H         -3.22606        1.04869       -1.10891
O         -1.89411        0.31092        1.28592
H         -0.92879        0.56011        1.09534
O         -3.86212       -0.80951        0.42764
O         -1.57919       -1.62002       -0.22910

