21
gfn2-136-136-wb97xd.log	Energy: -312834.4061917
O         -1.26260       -1.31005       -0.59120
O          1.26130       -0.89409       -1.28365
O         -2.27585        1.13959       -0.41284
O          2.07024        1.36841        0.00780
C         -0.56971       -0.36760        0.23248
C          0.91015       -0.78188        0.08392
C         -0.85523        1.03687       -0.31086
C         -1.04343       -0.50567        1.67916
C          1.94687        0.14810        0.70781
H          1.00062       -1.76410        0.57409
H         -0.39036        1.14955       -1.29624
H         -0.44909        1.79892        0.36123
H         -2.11030       -0.27802        1.74313
H         -0.88517       -1.52936        2.02939
H         -0.51242        0.18351        2.34284
H          1.67839        0.39290        1.73837
H          2.90826       -0.38308        0.72787
H         -2.12427       -0.92191       -0.79166
H          0.51475       -1.32644       -1.71883
H         -2.50348        1.93048       -0.90591
H          2.19653        1.13779       -0.92020

