21
gfn2-20-20-wb97xd.log	Energy: -312835.9462437
O         -1.86312       -1.04775       -0.50840
O          0.73420       -1.66345       -0.82220
O          0.07045        2.02725       -0.35703
O          2.26925        0.44693       -0.08475
C         -0.92929       -0.16204        0.09738
C          0.35506       -0.98843        0.36765
C         -0.75089        0.99053       -0.90347
C         -1.55559        0.33418        1.39258
C          1.57197       -0.24840        0.93228
H          0.05635       -1.76163        1.08625
H         -1.75081        1.37579       -1.12838
H         -0.30884        0.60335       -1.83104
H         -2.54876        0.74099        1.18264
H         -1.67166       -0.49279        2.09866
H         -0.95115        1.12016        1.85115
H          1.27834        0.41941        1.75060
H          2.27101       -0.98905        1.32916
H         -1.35865       -1.60559       -1.11650
H          1.45091       -1.14217       -1.21221
H         -0.04796        2.83051       -0.86946
H          1.74751        1.24218       -0.28048

