21
gfn2-142-142-wb97xd.log	Energy: -312833.1062990
O          0.95114        1.12612       -1.25220
O         -0.65838       -1.17671        1.03010
O          2.07217       -1.42286       -0.54660
O         -2.89719       -0.45021       -0.39337
C          0.71143        0.53041        0.01775
C         -0.57353       -0.31802       -0.09760
C          1.89692       -0.37050        0.38858
C          0.59649        1.65895        1.03336
C         -1.84530        0.49926       -0.23640
H         -0.48155       -0.92396       -1.01270
H          1.77318       -0.75654        1.40535
H          2.80681        0.23508        0.34509
H          1.57363        2.12555        1.18743
H         -0.08470        2.43313        0.67099
H          0.22983        1.27759        1.99053
H         -2.00810        1.09821        0.66844
H         -1.76539        1.16098       -1.10641
H          1.32106        0.44038       -1.82262
H         -1.53824       -1.57182        1.01229
H          1.46012       -2.12907       -0.31637
H         -3.74463       -0.00084       -0.35951

