21
gfn2-39-39-wb97xd.log	Energy: -312833.7909714
O         -0.23322       -1.49005       -0.80446
O         -0.03243        1.90950        0.53456
O         -2.35387        0.45381       -0.87120
O          2.35813       -0.46525       -0.70017
C         -0.38307       -0.51258        0.22353
C          0.37782        0.77358       -0.20312
C         -1.88601       -0.23210        0.27620
C          0.07416       -1.05699        1.57499
C          1.88752        0.69285       -0.01542
H          0.17397        0.91603       -1.27191
H         -2.12338        0.39885        1.13593
H         -2.40332       -1.19275        0.39980
H          0.05625       -0.26866        2.33450
H         -0.58474       -1.87012        1.89383
H          1.08900       -1.45833        1.50623
H          2.33857        1.60278       -0.42717
H          2.12389        0.64065        1.05486
H          0.71109       -1.56840       -0.99727
H         -0.88232        2.19183        0.18048
H         -2.13702       -0.09281       -1.63487
H          3.30647       -0.55165       -0.58138

