21
gfn2-3-3-wb97xd.log	Energy: -312837.5157415
O          0.34259        0.43002        1.39249
O         -0.46753       -1.61486       -0.59979
O          2.10883       -1.24297        0.24564
O         -2.31388       -0.19937        0.84193
C          0.51036        0.59108       -0.01169
C         -0.54087       -0.21778       -0.81951
C          1.92808        0.06038       -0.28556
C          0.45408        2.07395       -0.38616
C         -1.99015        0.14497       -0.49938
H         -0.36205        0.00806       -1.88368
H          2.65722        0.75239        0.15547
H          2.11781       -0.00340       -1.36078
H         -0.50507        2.51559       -0.10507
H          1.23385        2.61534        0.15560
H          0.60523        2.22557       -1.46054
H         -2.17653        1.21493       -0.60681
H         -2.64557       -0.38857       -1.19860
H         -0.60576        0.34314        1.57802
H          0.45120       -1.85267       -0.39543
H          1.86287       -1.17786        1.17882
H         -2.16224       -1.15062        0.91471

