21
gfn2-187-187-wb97xd.log	Energy: -312835.2301744
O         -0.79503       -0.59772        1.40326
O          0.57036        1.48567       -0.19382
O         -2.10085        1.43650        0.16857
O          2.95907        0.31186       -0.14394
C         -0.69643       -0.56378       -0.00971
C          0.63489        0.08647       -0.44742
C         -1.88541        0.24887       -0.56632
C         -0.77604       -2.00231       -0.51274
C          1.85013       -0.48591        0.26780
H          0.75525       -0.07111       -1.53076
H         -2.79827       -0.34355       -0.45928
H         -1.72941        0.45638       -1.63433
H         -1.72916       -2.44039       -0.20689
H         -0.70148       -2.04580       -1.60409
H          0.02124       -2.61512       -0.08477
H          1.69091       -0.41912        1.34911
H          2.00557       -1.53342       -0.01498
H         -1.20028        0.23957        1.66965
H          1.47360        1.82130       -0.25256
H         -1.31212        1.98375        0.04708
H          3.69290        0.17701        0.45959

