21
gfn2-1-1-wb97xd.log	Energy: -312838.3040992
O          0.26712        0.46501        1.37780
O         -0.44727       -1.54109       -0.73171
O          2.04599       -1.29373        0.37024
O         -2.33218       -0.34204        0.80724
C          0.53994        0.59139       -0.02107
C         -0.56568       -0.12392       -0.83803
C          1.91259       -0.05446       -0.29632
C          0.59551        2.07712       -0.35705
C         -1.98952        0.26532       -0.42528
H         -0.41689        0.12772       -1.89546
H          2.70049        0.59233        0.10008
H          2.06395       -0.15846       -1.37953
H          1.37990        2.55660        0.23361
H          0.81268        2.23070       -1.41925
H         -0.34730        2.57692       -0.12237
H         -2.10418        1.35496       -0.38428
H         -2.69593       -0.12118       -1.16452
H          0.78124       -0.29807        1.68312
H         -1.08310       -1.81103       -0.05247
H          1.37296       -1.87412       -0.01649
H         -1.69012       -0.01410        1.45541

