24
1-310-70631-wb97xd.log	Energy: -360797.2661798
O          0.74582        0.30922        1.39563
O         -0.58319       -1.07385       -0.89090
O          1.61124       -2.00763        0.35753
O         -1.71354        1.19986        0.70983
C          1.15068        0.36617        0.02258
C         -0.08955        0.25790       -0.90480
C          2.10500       -0.81967       -0.22684
C          1.88519        1.68479       -0.18457
C         -1.17542        1.29226       -0.60308
H          0.25879        0.46690       -1.92764
H          3.06537       -0.61555        0.25505
H          2.27628       -0.93831       -1.30558
H          2.76914        1.71710        0.45700
H          2.20320        1.79782       -1.22597
H          1.25411        2.53722        0.07911
H         -0.77387        2.29815       -0.77839
H         -2.00817        1.14652       -1.29818
H          0.78860       -0.62701        1.64605
H         -1.50924       -1.12143       -0.58400
H          0.76708       -2.18356       -0.08890
H         -0.96472        1.00888        1.30247
O         -3.17524       -0.97980        0.11553
H         -2.90839       -0.17045        0.59431
H         -3.55425       -1.58734        0.75399

