24
1-467-85057-wb97xd.log	Energy: -360797.5496521
O         -0.32215       -0.16910       -1.20657
O          0.59595       -0.95617        1.45864
O         -1.84540        0.16130        1.30079
O          2.13684       -1.34446       -0.75430
C          0.03623        0.78852       -0.20387
C          1.06999        0.19348        0.79100
C         -1.25928        1.18783        0.52483
C          0.59727        2.03965       -0.88779
C          2.37338       -0.25668        0.13415
H          1.31004        0.99244        1.51235
H         -1.97033        1.55616       -0.22701
H         -1.03297        2.01431        1.20658
H         -0.19155        2.53277       -1.46318
H          0.99452        2.75548       -0.16053
H          1.39380        1.77470       -1.58710
H          2.83413        0.53945       -0.45308
H          3.07635       -0.55534        0.92087
H          0.46874       -0.69967       -1.40392
H         -0.34459       -0.81100        1.66399
H         -2.37210       -0.40758        0.70670
H          1.75995       -2.05018       -0.21223
O         -2.75322       -1.33756       -0.80195
H         -3.42931       -1.15161       -1.45680
H         -1.89823       -1.03876       -1.16942

