24
1-372-24718-wb97xd.log	Energy: -360797.4289356
O         -0.59284       -0.20808        1.40637
O          0.57113        0.98162       -1.09671
O         -1.54046        2.03455        0.25295
O          1.75852       -1.25122        0.59017
C         -1.11031       -0.36212        0.08015
C          0.04888       -0.33103       -0.95366
C         -2.08350        0.80465       -0.17859
C         -1.85676       -1.68987        0.03547
C          1.14031       -1.37000       -0.68518
H         -0.38917       -0.58919       -1.92793
H         -2.99408        0.64779        0.40660
H         -2.35609        0.83128       -1.24289
H         -2.68971       -1.66712        0.74245
H         -2.25244       -1.88468       -0.96651
H         -1.20599       -2.52129        0.31823
H          0.72061       -2.37667       -0.80678
H          1.92926       -1.24952       -1.43392
H         -0.57783        0.74552        1.58356
H          1.39807        1.10260       -0.58889
H         -0.74966        2.17610       -0.29138
H          1.05170       -1.03576        1.22548
O          2.89213        1.18636        0.41110
H          2.80202        0.23616        0.62138
H          3.77380        1.32922        0.06049

