24
1-13-86579-wb97xd.log	Energy: -360797.9263436
O         -0.67717        0.14312       -1.41489
O          0.64280       -1.06815        0.89572
O         -1.70137       -1.98264       -0.13626
O          1.67728        1.28153       -0.61865
C         -1.10371        0.38815       -0.08234
C          0.06853        0.23542        0.92470
C         -2.18008       -0.67967        0.17075
C         -1.73366        1.77809        0.03555
C          1.19646        1.24575        0.71588
H         -0.34383        0.41802        1.93035
H         -3.06089       -0.44944       -0.44190
H         -2.48077       -0.69014        1.22205
H         -2.60694        1.84003       -0.61909
H         -2.04985        1.99418        1.06210
H         -1.02898        2.55035       -0.28208
H          0.83771        2.24921        0.96086
H          2.00783        1.00324        1.41284
H          0.18637        0.57961       -1.51930
H         -0.05791       -1.70399        0.66894
H         -1.39534       -1.93414       -1.05243
H          2.35138        0.58128       -0.70610
O          3.12380       -1.02915       -0.28175
H          3.33942       -1.70012       -0.93271
H          2.29388       -1.30227        0.15592

