31
1-SAc-70-48669-wb97xd.log	Energy: -800160.5494530
O          0.80327       -0.35472        1.19942
O          1.04298        0.30870       -1.66594
O         -0.01504       -2.03090       -1.12789
O          2.05279        1.91688        0.74145
C          1.73942       -0.98575        0.31698
C          2.13785        0.00688       -0.80999
C          1.07226       -2.25197       -0.23973
C          2.96601       -1.41449        1.12736
C          2.79570        1.29099       -0.29313
H          2.86858       -0.49817       -1.45324
H          0.68417       -2.83594        0.59925
H          1.83752       -2.85109       -0.74958
H          2.68626       -2.19765        1.83734
H          3.76160       -1.79727        0.48050
H          3.35852       -0.57257        1.70220
H          3.78525        1.06417        0.11487
H          2.92693        1.96687       -1.14520
H          1.13908        0.55523        1.35834
H          0.30671        0.69604       -1.16129
H          0.25080       -1.30489       -1.72533
H          1.36719        2.50819        0.36525
O         -0.13000        3.23357       -0.16862
H         -0.28441        3.93265       -0.80752
H         -0.84304        2.58136       -0.27621
S         -2.44672       -0.00546        0.14235
O         -2.49425       -1.38098       -0.61881
H         -1.56199       -1.71631       -0.78526
O         -1.75673       -0.35946        1.51119
H         -0.75886       -0.41696        1.38901
O         -1.54068        0.89159       -0.59419
O         -3.79284        0.41279        0.39470

