31
3-157-77300-wb97xd.log	Energy: -800160.8861934
O          1.27996        0.07227       -1.30585
O          0.55854       -0.20514        1.55354
O          1.88079        1.95331        0.96660
O          0.04251       -2.18809       -0.65788
C          2.22094       -0.17702       -0.26053
C          1.55437       -0.97926        0.89118
C          2.80518        1.15471        0.24965
C          3.34850       -0.98382       -0.89877
C          0.92789       -2.30098        0.45255
H          2.34010       -1.22980        1.61956
H          3.19954        1.69976       -0.61590
H          3.63539        0.94468        0.93260
H          2.95708       -1.86431       -1.41411
H          3.86535       -0.37125       -1.64208
H          4.07572       -1.31093       -0.15016
H          1.72311       -3.01577        0.21128
H          0.34950       -2.70869        1.28538
H          0.49404        0.53506       -0.96803
H          0.89258        0.71996        1.60460
H          1.32358        2.48232        0.35637
H          0.43578       -1.54254       -1.27690
O          0.00722        3.17038       -0.56169
H         -0.72337        2.53531       -0.64998
H          0.04490        3.67206       -1.37899
O         -2.45941       -1.42393       -0.63598
S         -2.47208        0.04099       -0.06248
O         -1.42530        0.80947       -0.75551
O         -3.82264        0.51654       -0.08504
O         -2.01901       -0.13853        1.43348
H         -1.52637       -1.79537       -0.61776
H         -1.01630       -0.21827        1.48605

