31
187-SAc-128-73267-wb97xd.log	Energy: -800160.9548555
O          1.27229        0.05181       -1.31715
O          0.56213       -0.21973        1.56444
O          1.78871        1.97564        0.94917
O          0.08299       -2.21728       -0.64421
C          2.21333       -0.14905       -0.26278
C          1.57344       -0.96704        0.89378
C          2.74453        1.21003        0.23495
C          3.37520       -0.91838       -0.88626
C          0.97868       -2.30541        0.46032
H          2.36963       -1.19627        1.61779
H          3.11035        1.76466       -0.63640
H          3.58454        1.03973        0.91706
H          3.86822       -0.29518       -1.63679
H          4.11280       -1.20580       -0.13156
H          3.02094       -1.82061       -1.39083
H          1.79037       -2.99982        0.21437
H          0.41657       -2.72687        1.29736
H          0.46956        0.49786       -0.99640
H          0.86397        0.71827        1.59344
H          1.21996        2.49672        0.34104
H          0.46929       -1.57842       -1.27500
O         -0.03500        3.19263       -0.63814
H         -0.76475        2.55483       -0.71303
H         -0.42282        4.05037       -0.45034
S         -2.44976        0.00932       -0.06736
O         -2.00660       -0.17371        1.43080
H         -1.00240       -0.25343        1.48837
O         -2.41977       -1.45209       -0.64740
H         -1.48601       -1.82191       -0.61400
O         -3.80413        0.47477       -0.09709
O         -1.40751        0.79370       -0.74886

