31
187-244-70983-wb97xd.log	Energy: -800161.8996086
O          1.68378        0.05909       -1.35101
O          0.50714        0.02032        1.37557
O          2.25434        1.94243        0.99591
O         -0.05948       -1.87640       -0.78798
C          2.41088       -0.26685       -0.16470
C          1.46654       -0.91017        0.88980
C          3.11593        0.98164        0.40127
C          3.48548       -1.26381       -0.59531
C          0.71171       -2.13296        0.37923
H          2.09081       -1.24948        1.73037
H          3.69955        1.43595       -0.40903
H          3.80865        0.67148        1.18914
H          4.22992       -0.76010       -1.21759
H          3.99234       -1.70705        0.26689
H          3.04528       -2.06370       -1.19498
H          1.42030       -2.94590        0.18362
H          0.02127       -2.47019        1.15782
H          1.21870        0.91290       -1.26347
H          0.96534        0.87091        1.52801
H          1.74103        2.40383        0.31011
H          0.42478       -1.21207       -1.31897
O          0.36242        2.47870       -0.96329
H          0.23695        3.11382       -1.67301
H         -0.51079        2.05933       -0.80455
O         -2.10638        0.08164        1.44117
S         -2.71935        0.12686       -0.01462
O         -4.11398        0.43328        0.10517
O         -1.85334        0.96785       -0.84531
O         -2.58611       -1.35472       -0.52580
H         -1.10875        0.03172        1.40719
H         -1.61627       -1.58565       -0.67480

