31
274-627-69984-wb97xd.log	Energy: -800152.8128825
O         -0.51898       -1.38335        0.50292
O         -1.49134        0.74565       -1.21577
O         -1.87704       -1.94074       -1.69506
O         -3.17256        2.60017       -0.12264
C         -1.88733       -0.92956        0.52033
C         -1.90062        0.56623        0.13891
C         -2.62883       -1.80861       -0.50436
C         -2.42210       -1.15304        1.92694
C         -3.25930        1.25430        0.27555
H         -1.19347        1.08781        0.79781
H         -3.63064       -1.40694       -0.69867
H         -2.74032       -2.81733       -0.09696
H         -1.95759       -0.46394        2.63886
H         -3.50556       -1.00505        1.96235
H         -2.20159       -2.17540        2.24247
H         -4.01475        0.71961       -0.32086
H         -3.58493        1.25377        1.31819
H         -0.36077       -1.73969       -0.38892
H         -0.55071        0.98899       -1.21724
H         -1.78241       -1.04752       -2.06106
H         -2.71846        2.60723       -0.97410
O          4.96603       -1.02368       -0.01918
H          5.01126       -0.15332        0.40271
H          5.72826       -1.09831       -0.59952
O          2.50305       -0.58688       -0.88107
S          2.15295        0.64906        0.05015
O          3.37338        1.28982        0.48941
O          1.15132        1.41297       -0.66976
O          1.50907       -0.01907        1.31601
H          3.41347       -0.92085       -0.64067
H          0.68664       -0.54913        1.05018

