31
13-400-86589-wb97xd.log	Energy: -800152.9840984
O         -0.74552        0.08064       -1.29110
O         -2.85423       -1.35013       -0.56390
O         -0.99660       -0.96787        1.42513
O         -5.26431       -0.09830        0.26831
C         -1.57398        0.69767       -0.28448
C         -2.97304        0.06834       -0.46589
C         -0.98221        0.41199        1.10367
C         -1.56739        2.19323       -0.56250
C         -3.99957        0.42427        0.60533
H         -3.36714        0.38978       -1.43638
H         -1.57473        0.93405        1.86251
H          0.03646        0.81429        1.15246
H         -1.99607        2.39954       -1.54619
H         -2.13974        2.73875        0.19253
H         -0.54125        2.57233       -0.54890
H         -3.66799        0.04195        1.58253
H         -4.11835        1.50863        0.68347
H         -1.08776       -0.81920       -1.42099
H         -2.40111       -1.64176        0.24711
H         -0.14403       -1.34750        1.15891
H         -5.13728       -1.02638        0.03904
O          4.97980        1.38252        0.54835
H          5.64491        1.43142        1.24023
H          5.19509        0.61512       -0.00172
O          1.82127        0.14776       -1.39630
S          2.45622       -0.60063       -0.17463
O          1.53044       -1.60917        0.30702
O          3.80727       -0.96085       -0.54837
O          2.51805        0.51180        0.95637
H          0.80797        0.15459       -1.33550
H          3.39924        0.98037        0.90403

