31
20-134-69269-wb97xd.log	Energy: -800154.6913383
O          3.10041        1.31438       -1.35380
O          0.93724        1.87881        0.25815
O          1.33994       -1.77894       -0.58326
O          0.59611       -0.78645        1.71299
C          2.65382        0.29902       -0.46232
C          1.97571        1.03881        0.72652
C          1.72409       -0.60058       -1.29746
C          3.88590       -0.47228       -0.00927
C          1.57151        0.22219        1.95151
H          2.74825        1.72855        1.08986
H          2.27992       -0.88358       -2.19683
H          0.83596       -0.03592       -1.60469
H          4.45493       -0.78614       -0.88812
H          4.53129        0.16226        0.60512
H          3.61207       -1.36608        0.55702
H          2.46251       -0.23870        2.39393
H          1.14050        0.90570        2.68628
H          2.40053        1.98000       -1.39295
H          0.15852        1.36230       -0.00347
H          0.49038       -2.08833       -0.93029
H          0.90592       -1.33905        0.95315
O         -3.98662        2.03644       -0.29007
H         -3.07207        2.26250       -0.50901
H         -4.21480        2.52079        0.50838
O         -3.59070       -0.55620       -0.35001
S         -2.03905       -0.59452       -0.17710
O         -1.54224       -1.82700       -0.75176
O         -1.46611        0.65942       -0.68056
O         -1.90835       -0.60969        1.38454
H         -3.90278        0.39456       -0.28232
H         -0.90991       -0.63578        1.62383

