31
12-SAc-585-93176-wb97xd.log	Energy: -800152.0382534
O          1.02071        1.04692        1.25981
O          2.00324       -1.31838        1.39646
O          0.72959       -0.42844       -1.34790
O          2.91051       -2.00797       -0.96328
C          2.05832        0.88484        0.30471
C          2.85943       -0.35089        0.83054
C          1.50098        0.73940       -1.11943
C          2.96625        2.11772        0.31984
C          3.70542       -1.09994       -0.20539
H          3.54138        0.03421        1.60438
H          2.32712        0.77425       -1.84002
H          0.84505        1.58953       -1.32685
H          3.24042        2.35230        1.35092
H          3.88267        1.95475       -0.25860
H          2.44651        2.98530       -0.09796
H          4.17948       -0.41662       -0.91412
H          4.49740       -1.65530        0.30948
H          0.19627        1.35163        0.84808
H          1.23640       -0.82484        1.72801
H          1.33913       -1.19136       -1.32579
H          2.51164       -2.59939       -0.31028
O         -4.61440       -1.57219        0.87818
H         -4.92974       -0.86722        0.29382
H         -4.77572       -2.40447        0.42579
S         -2.35438        0.51124       -0.23489
O         -2.23673       -0.40306        1.05354
H         -3.04609       -0.98310        1.10569
O         -1.81902       -0.39680       -1.39544
H         -0.80381       -0.44511       -1.37723
O         -3.75202        0.76547       -0.51483
O         -1.43693        1.61679       -0.02137

