31
159-390-66997-wb97xd.log	Energy: -800152.7108745
O          3.68936       -0.40992        1.54585
O          1.03248       -1.33818        1.03566
O          1.52018        1.83166       -0.36537
O          0.62390       -0.19909       -1.78337
C          2.98623       -0.03513        0.36487
C          2.01692       -1.20482        0.03059
C          2.29354        1.29550        0.71188
C          4.03386        0.15950       -0.72195
C          1.44752       -1.29205       -1.38430
H          2.64271       -2.10163        0.12564
H          3.07640        2.01253        0.97629
H          1.65630        1.14901        1.59000
H          4.49369       -0.79566       -0.99247
H          3.59969        0.61393       -1.61721
H          4.81968        0.82025       -0.34745
H          2.26824       -1.39766       -2.10252
H          0.82537       -2.18829       -1.44138
H          3.03899       -0.75717        2.16980
H          0.37212       -0.63261        0.95793
H          0.63470        2.01371       -0.02244
H          1.02484        0.63677       -1.44498
O         -5.17465       -0.81637        0.39787
H         -5.15568        0.12827        0.18859
H         -5.62634       -1.25765       -0.32661
O         -2.56746       -0.90767        0.80550
S         -2.15723        0.42717        0.07244
O         -3.29546        1.32186        0.03709
O         -0.91763        0.85852        0.71312
O         -1.84182       -0.01584       -1.38900
H         -3.54860       -1.05449        0.68468
H         -0.82595       -0.16171       -1.54209

