31
20-SAc-476-68800-wb97xd.log	Energy: -800151.9472269
O          1.19129        1.46427        0.73795
O          2.77894       -0.44710        1.62939
O          0.56748       -1.26102        0.15872
O          3.69283       -1.86645       -0.56196
C          1.90411        0.77641       -0.28186
C          3.16630        0.30126        0.47438
C          1.07436       -0.38445       -0.85321
C          2.26259        1.73119       -1.42086
C          4.16548       -0.56340       -0.28640
H          3.69444        1.21156        0.79373
H          1.68063       -0.96505       -1.55328
H          0.20318        0.01245       -1.38181
H          1.35028        2.18656       -1.81692
H          2.90735        2.53389       -1.05265
H          2.76986        1.21819       -2.24385
H          4.40167       -0.10352       -1.24916
H          5.09284       -0.60566        0.29915
H          0.27491        1.63164        0.46388
H          2.20186        0.13797        2.13926
H          1.26854       -1.36493        0.82404
H          3.59946       -2.33167        0.27504
O         -4.98384       -1.40607       -0.63203
H         -5.12556       -0.79217        0.10343
H         -5.05340       -2.29431       -0.27192
S         -2.44378        0.45458        0.21186
O         -2.66957       -0.22996       -1.20115
H         -3.48994       -0.79385       -1.14895
O         -1.74309       -0.66232        1.05822
H         -0.80704       -0.88728        0.70966
O         -1.52229        1.54831       -0.03562
O         -3.72495        0.70618        0.83752

