31
20-SAc-550-83406-wb97xd.log	Energy: -800154.0480972
O         -3.19731       -0.24108       -1.64299
O         -1.06912       -1.79497       -0.88597
O         -1.04528        1.66949        0.58523
O         -0.24759       -0.46099        1.71201
C         -2.59873        0.04207       -0.38481
C         -1.95256       -1.28916        0.09517
C         -1.60908        1.19294       -0.63715
C         -3.71486        0.48667        0.55100
C         -1.35779       -1.33499        1.49988
H         -2.78488       -2.00416        0.11729
H         -2.16956        1.99752       -1.12291
H         -0.81445        0.86653       -1.31903
H         -4.28697        1.28408        0.06974
H         -4.39705       -0.34325        0.75743
H         -3.31616        0.87321        1.49207
H         -2.12916       -1.10042        2.24073
H         -0.99576       -2.34823        1.68652
H         -2.58278       -0.81151       -2.12426
H         -0.24951       -1.27613       -0.92310
H         -0.32943        2.31211        0.38050
H         -0.49508        0.45687        1.37876
O          1.10081        3.16234       -0.05426
H          1.85238        2.54518       -0.06222
H          1.39142        3.94990        0.41140
S          2.44510       -0.28503       -0.18021
O          2.02702       -1.04320        1.09665
H          0.99341       -0.81646        1.37841
O          3.71813       -1.12793       -0.64184
H          3.44249       -2.02046       -0.89780
O          1.39527       -0.40139       -1.18702
O          2.96152        1.03904        0.10261

