31
7-342-82663-wb97xd.log	Energy: -800155.4560841
O         -0.44718        1.29174       -0.75445
O         -1.40511       -1.53358       -0.76971
O         -0.46327       -0.57839        1.54566
O         -3.76652       -1.30205        0.70460
C         -1.64561        0.84658       -0.11083
C         -2.19934       -0.35259       -0.92974
C         -1.36032        0.51677        1.36338
C         -2.59978        2.03535       -0.16826
C         -3.62473       -0.79010       -0.60514
H         -2.18202       -0.03474       -1.98158
H         -2.30078        0.29442        1.87527
H         -0.88722        1.38436        1.83116
H         -3.49785        1.86200        0.42920
H         -2.09400        2.92226        0.22324
H         -2.89305        2.24311       -1.20128
H         -4.31165        0.05416       -0.69110
H         -3.91906       -1.53888       -1.35105
H          0.17891        0.55077       -0.87529
H         -0.54400       -1.44991       -1.20368
H         -0.77408       -1.29367        0.96321
H         -3.32879       -2.15804        0.74167
O          1.63281        2.70409        0.17205
H          0.75168        2.40434       -0.14297
H          1.82474        3.54397       -0.25323
O          3.30084        0.73941       -0.32392
S          2.58955       -0.64556       -0.13290
O          1.39156       -0.68764       -0.99320
O          3.57921       -1.66887       -0.29432
O          2.09624       -0.58755        1.35760
H          2.68739        1.51124       -0.11780
H          1.08699       -0.51965        1.42964

