37
7-SAc-329-89002-wb97xd.log	Energy: -896079.8761530
O         -3.44267       -0.62772       -1.58034
O         -0.76846       -1.30262       -1.12108
O         -1.80825        1.67290        0.72866
O         -0.40475       -0.21939        1.70548
C         -2.84420       -0.28886       -0.33488
C         -1.73303       -1.34715       -0.07823
C         -2.35155        1.16452       -0.48679
C         -3.94046       -0.37779        0.71842
C         -1.09591       -1.40252        1.30863
H         -2.24045       -2.31199       -0.19881
H         -3.22024        1.76243       -0.78071
H         -1.60795        1.22818       -1.28866
H         -3.60604        0.03001        1.67573
H         -4.80363        0.20191        0.38209
H         -4.26078       -1.41455        0.85771
H         -1.86623       -1.62576        2.05444
H         -0.36141       -2.21242        1.32426
H         -2.72861       -0.82086       -2.20127
H         -0.27029       -0.46229       -1.07203
H         -1.19529        2.41480        0.53466
H         -0.94702        0.58261        1.43772
O          1.85349       -2.35684       -1.29668
H          2.02518       -2.76291       -0.42476
H          0.88765       -2.23437       -1.34813
O          2.34124       -2.74619        1.37208
H          3.04905       -3.21027        1.82538
H          2.50089       -1.79570        1.48209
O          0.09663        3.59456        0.30026
H          0.96021        3.25019        0.02889
H          0.27211        4.29680        0.93136
S          2.12227        0.80315       -0.28900
O          1.92989        0.01916        1.05782
H          0.88873       -0.07284        1.33152
O          3.07511       -0.12654       -1.09287
H          2.60831       -1.03320       -1.25968
O          0.81298        0.88170       -0.94790
O          2.78358        2.06729       -0.05425

