37
7-SAc-153-87019-wb97xd.log	Energy: -896081.5148375
O         -3.05789       -1.18132       -1.72560
O         -0.64455       -1.69025       -0.47947
O         -2.03597        1.69566        0.25953
O         -0.68347        0.17089        1.83405
C         -2.78368       -0.50761       -0.50286
C         -1.80906       -1.41668        0.29412
C         -2.22427        0.87467       -0.88729
C         -4.11253       -0.36011        0.22674
C         -1.45661       -1.01651        1.72532
H         -2.32617       -2.38046        0.37183
H         -2.95771        1.33247       -1.55989
H         -1.28038        0.76552       -1.43655
H         -4.01920        0.30000        1.09208
H         -4.84443        0.07579       -0.45790
H         -4.48822       -1.33567        0.54888
H         -2.37319       -0.91245        2.31660
H         -0.86235       -1.81916        2.17062
H         -2.22379       -1.54151       -2.05241
H         -0.12773       -0.87720       -0.64074
H         -1.52215        2.49277       -0.00028
H         -1.16800        0.89291        1.34505
O          3.58217       -2.00224       -1.07611
H          3.41384       -2.15997       -2.00901
H          2.88908       -2.48489       -0.55872
O          1.65814       -2.88409        0.55606
H          1.81863       -2.22393        1.24177
H          0.78368       -2.64680        0.19083
O         -0.31029        3.66788       -0.34741
H         -0.24324        4.17673       -1.15830
H          0.57247        3.29677       -0.17245
S          2.06275        0.83582        0.01221
O          3.51209        0.39738       -0.29832
H          3.55745       -0.57725       -0.64561
O          1.77367        0.05554        1.35005
H          0.76527        0.12612        1.58641
O          2.06130        2.26696        0.25074
O          1.13843        0.33916       -1.01148

